18
 comment:c
C -0.9914370 0.6523950 -1.1345110
C -1.1881610 0.6988170 2.1603019
C 0.0585170 0.7231730 2.6164269
C 1.9022371 0.6114360 -0.2480620
C 1.1734290 -0.4507380 -0.5851560
C -0.1980570 -0.4276670 -1.1418890
H -1.9843870 0.6282000 -1.5762820
H -1.8154171 1.5878220 2.1591320
H 0.5084750 1.6316741 3.0110741
H 2.8949440 0.4975220 0.1777100
H 1.5902010 -1.4472380 -0.4342590
H 0.6848500 -0.1650650 2.6096029
H -1.6315930 -0.2074040 1.7569510
H 1.5386620 1.6270820 -0.3814000
H -0.6859210 1.5705930 -0.6472600
N -0.6257500 -1.6845230 -1.6031650
H -1.4923691 -1.6482080 -2.1246779
H 0.0788530 -2.1900330 -2.1258180
