18
 comment:c
C -1.0192980 0.6372560 -0.7993470
C -1.0447770 0.6446720 1.6314070
C 0.2210600 0.6439470 2.0803051
C 1.7030790 0.6376250 0.1704850
C 1.1720850 -0.3901640 -0.5199150
C -0.1837920 -0.4013320 -1.0122360
H -2.0733371 0.5729750 -1.0611230
H -1.6115299 1.5662040 1.5314740
H 0.7240540 1.5661470 2.3588910
H 2.6781890 0.5520600 0.6425120
H 1.6878650 -1.3470510 -0.5583700
H 0.7181240 -0.2756870 2.3682971
H -1.6130871 -0.2755070 1.5458291
H 1.2922760 1.6394399 0.1221020
H -0.6526630 1.6247810 -0.5524570
N -0.6414390 -1.6711839 -1.5269049
H -1.5418720 -1.9044020 -1.1174860
H -0.7971440 -1.5977170 -2.5283689
