18
 comment:c
C -1.0201010 0.6370130 -0.7624010
C -1.0358829 0.6440400 1.5905800
C 0.2404700 0.6433270 2.0456350
C 1.6771860 0.6366250 0.2020820
C 1.1654600 -0.3908000 -0.5205780
C -0.1785160 -0.4025340 -1.0070210
H -2.0741539 0.5709330 -1.0250680
H -1.6090540 1.5651230 1.5318789
H 0.7213280 1.5651730 2.3617840
H 2.6555779 0.5537000 0.6683540
H 1.6890240 -1.3432090 -0.5636910
H 0.7151250 -0.2741480 2.3753300
H -1.6126111 -0.2740180 1.5495239
H 1.2919290 1.6459910 0.1120950
H -0.6473410 1.6358340 -0.5747890
N -0.6394770 -1.6694050 -1.5289190
H -1.5289310 -1.9151100 -1.1024179
H -0.8203520 -1.5821540 -2.5251210
