18
 comment:c
C -1.0191211 0.6468700 -0.9265680
C -1.0918570 0.6501680 1.7845740
C 0.1631260 0.6499260 2.2226291
C 1.7915961 0.6386500 0.0552040
C 1.1882970 -0.3941300 -0.5404140
C -0.1941010 -0.4015160 -1.0375240
H -2.0565140 0.5867130 -1.2475510
H -1.6457390 1.5720260 1.6244930
H 0.6960420 1.5726891 2.4403360
H 2.7851150 0.5400420 0.4839720
H 1.6872820 -1.3603250 -0.5830970
H 0.6992720 -0.2730440 2.4189661
H -1.6341740 -0.2734930 1.6072910
H 1.3446190 1.6263990 0.1025540
H -0.6839110 1.6041700 -0.5483410
N -0.6461390 -1.6816770 -1.5136340
H -1.6292880 -1.8039110 -1.2926340
H -0.5624870 -1.7381279 -2.5248389
