18
 comment:c
C -1.0501170 0.6383860 -0.3845940
C -1.0045919 0.6447210 1.1794990
C 0.4625490 0.6448180 1.6949480
C 1.4753211 0.6669490 0.5030430
C 1.1189780 -0.4129470 -0.4863210
C -0.1443890 -0.4632930 -0.9080890
H -2.0786300 0.5234780 -0.7463790
H -1.5502820 1.5181140 1.5555201
H 0.6467040 1.5106820 2.3418880
H 2.5003121 0.5504240 0.8693630
H 1.8075970 -1.2227941 -0.7135670
H 0.6537860 -0.2477040 2.3007929
H -1.5376509 -0.2391060 1.5491210
H 1.4271950 1.6592730 0.0313460
H -0.6993240 1.6160480 -0.7436910
N -0.6462590 -1.6383020 -1.5704690
H -1.5128330 -1.9199970 -1.1170681
H -0.8915440 -1.4483840 -2.5393200
