18
 comment:c
C 0.0000000 0.0000000 0.0000000
C 0.0000000 0.0000000 2.2469959
C 1.2985460 0.0000000 2.7160580
C 2.6677420 -0.0096380 0.9552890
C 2.1874809 -1.0411921 0.1835090
C 0.8620360 -1.0378489 -0.2857780
H -1.0503139 -0.0739430 -0.2800820
H -0.5814000 0.9182570 2.2564580
H 1.7351570 0.9202210 3.0961771
H 3.6575749 -0.0883720 1.3987830
H 2.7231491 -1.9865940 0.1344210
H 1.7318569 -0.9149580 3.1060121
H -0.5837870 -0.9147950 2.2675481
H 2.3247910 1.0074570 0.7994930
H 0.3861140 1.0097380 0.0546170
N 0.3865320 -2.3193879 -0.8265680
H -0.4589820 -2.5837791 -0.3626670
H 0.2130740 -2.2237561 -1.8067549
