18
 comment:c
C -1.0194340 0.6445060 -0.8998530
C -1.0801240 0.6484750 1.7488390
C 0.1754810 0.6479740 2.1887829
C 1.7731280 0.6392920 0.0821770
C 1.1853220 -0.3928390 -0.5322340
C -0.1923900 -0.4010390 -1.0304780
H -2.0621450 0.5826920 -1.2030170
H -1.6351160 1.5702090 1.5932730
H 0.7060970 1.5704960 2.4120729
H 2.7606671 0.5443980 0.5253770
H 1.6872660 -1.3573110 -0.5737680
H 0.7061840 -0.2746300 2.3996201
H -1.6270090 -0.2747840 1.5851769
H 1.3277940 1.6279150 0.1148550
H -0.6771140 1.6072750 -0.5431520
N -0.6447200 -1.6796840 -1.5183910
H -1.6018950 -1.8415300 -1.2206891
H -0.6523760 -1.6864280 -2.5345500
