18
 comment:c
C -1.1415240 0.4749460 -0.3044210
C -0.9762910 0.7201590 1.2078270
C 0.4993860 0.7395490 1.6718230
C 1.4946530 0.6534200 0.5022250
C 1.1105289 -0.4568240 -0.4417910
C -0.1664680 -0.5503380 -0.8316400
H -2.1764791 0.1795840 -0.5177630
H -1.4745650 1.6621410 1.4642020
H 0.7008310 1.6379420 2.2674100
H 2.5061309 0.4983220 0.8932910
H 1.8611600 -1.1631020 -0.7912930
H 0.6807950 -0.1186830 2.3280759
H -1.5148129 -0.0681880 1.7449670
H 1.5185159 1.6215490 -0.0238330
H -0.9708310 1.4177550 -0.8441770
N -0.6694010 -1.5357670 -1.6916510
H -1.5754451 -1.3208420 -2.0828960
H -0.0247720 -1.8311909 -2.4120121
