18
 comment:c
C -0.9916700 0.6499840 -1.1352770
C -1.1904070 0.7018360 2.1731360
C 0.0560570 0.7297640 2.6296170
C 1.9061520 0.6087670 -0.2635700
C 1.1684290 -0.4547800 -0.5760120
C -0.1981030 -0.4299530 -1.1444640
H -1.9803470 0.6299300 -1.5867980
H -1.8256750 1.5850260 2.1871979
H 0.4977230 1.6354769 3.0396740
H 2.8938701 0.4969350 0.1742170
H 1.5726910 -1.4516710 -0.3965190
H 0.6904030 -0.1525370 2.6078980
H -1.6256680 -0.2013650 1.7544020
H 1.5543460 1.6236830 -0.4300660
H -0.6908490 1.5627890 -0.6350350
N -0.6207920 -1.6839670 -1.6176260
H -1.4846129 -1.6453800 -2.1436131
H 0.0877840 -2.1842699 -2.1399400
