18
 comment:c
C -1.0725760 0.6037220 -0.3698010
C -0.9956630 0.6623100 1.1690000
C 0.4693950 0.6634570 1.6711230
C 1.4872240 0.6692530 0.5081700
C 1.1172590 -0.4249560 -0.4583950
C -0.1512210 -0.4909640 -0.8629400
H -2.1047950 0.4389630 -0.7001340
H -1.5320520 1.5463361 1.5325381
H 0.6511560 1.5229530 2.3267109
H 2.5021591 0.5343740 0.8956860
H 1.8247980 -1.2040009 -0.7300430
H 0.6534260 -0.2334150 2.2725611
H -1.5240220 -0.2091690 1.5725430
H 1.4698520 1.6531140 0.0160590
H -0.7604110 1.5736220 -0.7831610
N -0.6444040 -1.6117280 -1.6111881
H -1.5127100 -1.9335411 -1.1889280
H -0.8881500 -1.3320340 -2.5586481
