18
 comment:c
C -1.1208510 0.5228940 -0.3233400
C -0.9831920 0.7175990 1.1987110
C 0.4900260 0.7244960 1.6728290
C 1.4935290 0.6522440 0.5054730
C 1.1030800 -0.4586250 -0.4340320
C -0.1683800 -0.5384010 -0.8302670
H -2.1587591 0.2772100 -0.5797230
H -1.4875710 1.6466579 1.4879950
H 0.6936750 1.6140990 2.2801731
H 2.5060120 0.5025230 0.8948660
H 1.8275480 -1.2041399 -0.7522900
H 0.6673300 -0.1420370 2.3191330
H -1.5220430 -0.0942820 1.6998930
H 1.5062931 1.6184200 -0.0225990
H -0.8983710 1.4741070 -0.8301010
N -0.6254520 -1.5764869 -1.6978770
H -1.6097220 -1.7658530 -1.5374269
H -0.5303580 -1.3138970 -2.6738391
