18
 comment:c
C -0.9970820 0.6350770 -1.1329250
C -1.2030880 0.7161530 2.2473791
C 0.0432830 0.7770250 2.7007771
C 1.9302040 0.5794690 -0.3540340
C 1.1350790 -0.4755350 -0.5203650
C -0.2001740 -0.4423240 -1.1572790
H -1.9613620 0.6398060 -1.6354210
H -1.8919710 1.5516890 2.3526750
H 0.4311180 1.6638910 3.1971731
H 2.8903790 0.4888750 0.1459890
H 1.4606791 -1.4572170 -0.1740830
H 0.7318230 -0.0565410 2.5887101
H -1.5849930 -0.1662580 1.7411430
H 1.6493109 1.5669349 -0.7118930
H -0.7242200 1.5138940 -0.5604360
N -0.5867730 -1.6762069 -1.7055380
H -1.4301080 -1.6233360 -2.2626269
H 0.1492350 -2.1433749 -2.2204781
