18
 comment:c
C -1.0642130 0.6172320 -0.3748500
C -0.9969280 0.6533960 1.1668839
C 0.4666160 0.6543670 1.6735770
C 1.4835070 0.6703140 0.5079990
C 1.1180850 -0.4186960 -0.4660410
C -0.1494190 -0.4817950 -0.8737160
H -2.0957670 0.4696680 -0.7150810
H -1.5384400 1.5303710 1.5398810
H 0.6463840 1.5127389 2.3312380
H 2.4999909 0.5385610 0.8923620
H 1.8220450 -1.2047230 -0.7266770
H 0.6525880 -0.2437870 2.2724819
H -1.5243080 -0.2257560 1.5549210
H 1.4594450 1.6579970 0.0241800
H -0.7378420 1.5895530 -0.7706430
N -0.6469980 -1.6198370 -1.5940681
H -1.5135370 -1.9298559 -1.1595020
H -0.8937280 -1.3677070 -2.5483780
