18
 comment:c
C -1.1436460 0.4717490 -0.3043170
C -0.9759400 0.7183970 1.2078860
C 0.4996000 0.7395170 1.6719550
C 1.4958590 0.6527290 0.5034420
C 1.1123650 -0.4539450 -0.4451910
C -0.1649910 -0.5479330 -0.8339930
H -2.1764629 0.1667810 -0.5135510
H -1.4747390 1.6603251 1.4634420
H 0.7002500 1.6388960 2.2662930
H 2.5065701 0.4954790 0.8957300
H 1.8654330 -1.1545240 -0.8013160
H 0.6811730 -0.1174980 2.3297949
H -1.5136540 -0.0695780 1.7462920
H 1.5222840 1.6216210 -0.0210020
H -0.9814160 1.4157920 -0.8443490
N -0.6762690 -1.5332130 -1.6876180
H -1.5344800 -1.2720420 -2.1526790
H -0.0045450 -1.9005580 -2.3482101
