18
 comment:c
C -1.0182000 0.6508660 -0.9677170
C -1.1120890 0.6536590 1.8472850
C 0.1429200 0.6542000 2.2819400
C 1.8188720 0.6356070 0.0065860
C 1.1923230 -0.3981000 -0.5595760
C -0.1972170 -0.4029580 -1.0523990
H -2.0465691 0.5956830 -1.3169150
H -1.6660269 1.5756429 1.6864120
H 0.6768910 1.5773910 2.4967020
H 2.8214281 0.5309740 0.4121260
H 1.6878860 -1.3669209 -0.5999570
H 0.6862020 -0.2691570 2.4582870
H -1.6473531 -0.2704960 1.6505520
H 1.3727241 1.6234140 0.0707120
H -0.6930830 1.5984650 -0.5575220
N -0.6505630 -1.6805100 -1.5026790
H -1.6642359 -1.7162189 -1.5042710
H -0.3312430 -1.8812100 -2.4459770
