18
 comment:c
C -1.0252990 0.6423790 -0.7265180
C -1.0292600 0.6441120 1.5524200
C 0.2615140 0.6438670 2.0181749
C 1.6510310 0.6342200 0.2326110
C 1.1611850 -0.3949750 -0.5252800
C -0.1709240 -0.3992670 -1.0009800
H -2.0769119 0.5689270 -0.9987740
H -1.6085550 1.5632930 1.5407619
H 0.7126190 1.5647380 2.3784990
H 2.6366160 0.5559770 0.6852510
H 1.6919670 -1.3429090 -0.5744780
H 0.7085190 -0.2716230 2.3901420
H -1.6107160 -0.2721120 1.5537651
H 1.2926400 1.6490020 0.0974710
H -0.6463900 1.6530581 -0.6268160
N -0.6377480 -1.6717280 -1.5326400
H -1.5101520 -1.9381330 -1.0852050
H -0.8281950 -1.5816730 -2.5260839
