18
 comment:c
C -1.1412830 0.4861630 -0.3134670
C -0.9779810 0.6986200 1.2051210
C 0.4971300 0.7308680 1.6712511
C 1.4998260 0.6534660 0.5059680
C 1.1162961 -0.4371450 -0.4609890
C -0.1625110 -0.5314830 -0.8441750
H -2.1712890 0.1811130 -0.5328390
H -1.4919550 1.6252730 1.4853710
H 0.6904670 1.6316040 2.2658241
H 2.5076010 0.4857920 0.9015650
H 1.8684750 -1.1376740 -0.8199550
H 0.6833880 -0.1241190 2.3304780
H -1.5030320 -0.1126610 1.7208689
H 1.5342050 1.6286139 -0.0055730
H -0.9740990 1.4408110 -0.8323590
N -0.6937370 -1.5406550 -1.6590790
H -1.4167550 -1.2148941 -2.2881711
H 0.0113270 -2.0568089 -2.1709509
