18
 comment:c
C -1.0428160 0.6494130 -0.4298810
C -1.0221200 0.6428370 1.2348690
C 0.4457190 0.6422930 1.7514620
C 1.4922010 0.6640910 0.4708630
C 1.1219550 -0.4135350 -0.5079370
C -0.1386070 -0.4497130 -0.9433960
H -2.0656259 0.5519060 -0.8127590
H -1.5713249 1.5229160 1.5895900
H 0.6474610 1.5191540 2.3782289
H 2.5263989 0.5609530 0.8149960
H 1.7763730 -1.2635150 -0.6853280
H 0.6562630 -0.2457740 2.3574331
H -1.5692220 -0.2410360 1.5828530
H 1.4070840 1.6610180 0.0167080
H -0.6737940 1.6352820 -0.7420060
N -0.6430180 -1.6516910 -1.5571280
H -1.5119840 -1.9108911 -1.0949171
H -0.8844240 -1.5034130 -2.5341821
