18
 comment:c
C -1.1034430 0.5528330 -0.3413530
C -0.9880800 0.7014580 1.1882670
C 0.4819350 0.7045890 1.6732930
C 1.4918020 0.6561250 0.5084400
C 1.1076320 -0.4491550 -0.4399210
C -0.1618440 -0.5219110 -0.8405450
H -2.1397691 0.3339520 -0.6254460
H -1.5023030 1.6166840 1.5032270
H 0.6794410 1.5841900 2.2968349
H 2.5049989 0.5123400 0.8978060
H 1.8256710 -1.2053900 -0.7465380
H 0.6594930 -0.1723580 2.3053491
H -1.5250961 -0.1312030 1.6565230
H 1.4941750 1.6267270 -0.0107560
H -0.8484550 1.5120020 -0.8163400
N -0.6263890 -1.5897551 -1.6764489
H -1.5393900 -1.9005350 -1.3534499
H -0.7652830 -1.2615080 -2.6290720
