18
 comment:c
C -1.1374260 0.4842550 -0.3061590
C -0.9774560 0.7222830 1.2071240
C 0.4983240 0.7382060 1.6716260
C 1.4936190 0.6538580 0.5010860
C 1.1070590 -0.4600660 -0.4372450
C -0.1689720 -0.5517330 -0.8283180
H -2.1750560 0.2051600 -0.5289960
H -1.4757590 1.6628031 1.4687099
H 0.7012940 1.6347340 2.2694640
H 2.5058341 0.5006170 0.8907210
H 1.8510890 -1.1787150 -0.7744340
H 0.6790470 -0.1219860 2.3254271
H -1.5165380 -0.0693910 1.7389539
H 1.5143830 1.6209830 -0.0267670
H -0.9519930 1.4266191 -0.8423100
N -0.6561520 -1.5448010 -1.6969481
H -1.6287230 -1.4269010 -1.9435680
H -0.0955700 -1.6834370 -2.5264039
