18
 comment:c
C -0.9958660 0.6377960 -1.1333770
C -1.2010720 0.7141950 2.2347360
C 0.0453660 0.7674540 2.6888900
C 1.9265029 0.5857090 -0.3398580
C 1.1403550 -0.4723480 -0.5281480
C -0.1997060 -0.4402070 -1.1550010
H -1.9637270 0.6387360 -1.6288590
H -1.8781400 1.5616010 2.3198409
H 0.4451470 1.6594850 3.1662011
H 2.8903069 0.4909710 0.1522710
H 1.4778270 -1.4581749 -0.2058700
H 0.7220430 -0.0781710 2.5967009
H -1.5948350 -0.1738130 1.7477760
H 1.6353790 1.5797280 -0.6702560
H -0.7189230 1.5218509 -0.5710670
N -0.5926620 -1.6775930 -1.6912060
H -1.4396200 -1.6269900 -2.2429900
H 0.1386580 -2.1501541 -2.2079370
