18
 comment:c
C -1.0179780 0.6519730 -0.9763550
C -1.1165251 0.6545200 1.8615741
C 0.1385240 0.6553720 2.2956560
C 1.8242270 0.6344310 -0.0049310
C 1.1928250 -0.3995300 -0.5644570
C -0.1981360 -0.4033050 -1.0559460
H -2.0446351 0.5980400 -1.3306470
H -1.6707590 1.5764790 1.7012990
H 0.6724030 1.5786830 2.5104251
H 2.8287060 0.5287560 0.3954840
H 1.6881011 -1.3687741 -0.6041170
H 0.6833250 -0.2679850 2.4678690
H -1.6502330 -0.2697230 1.6607640
H 1.3783600 1.6222770 0.0621130
H -0.6944220 1.5974400 -0.5601800
N -0.6516490 -1.6791620 -1.5004660
H -1.6634530 -1.6970110 -1.5659651
H -0.2719680 -1.9215860 -2.4107659
