18
 comment:c
C -0.9956070 0.6630590 -1.1137700
C -1.1742830 0.6804400 2.0858059
C 0.0753730 0.6928150 2.5340610
C 1.8838561 0.6187260 -0.1743600
C 1.1896700 -0.4297010 -0.6127600
C -0.2007010 -0.4158480 -1.1204031
H -2.0064249 0.6230400 -1.5115581
H -1.7595360 1.5928510 1.9934649
H 0.5709450 1.6150759 2.8302541
H 2.8978031 0.5018060 0.1971450
H 1.6569860 -1.4147810 -0.5847740
H 0.6596900 -0.2196900 2.6178210
H -1.6631891 -0.2408310 1.7812220
H 1.4727970 1.6247060 -0.1660460
H -0.6704280 1.6012000 -0.6809210
N -0.6444040 -1.6819650 -1.5402470
H -1.5197279 -1.6534910 -2.0474181
H 0.0472290 -2.2052009 -2.0625601
