18
 comment:c
C -1.1394660 0.4792490 -0.3050580
C -0.9768140 0.7214170 1.2075731
C 0.4989560 0.7390640 1.6716990
C 1.4939660 0.6537780 0.5014520
C 1.1087350 -0.4587620 -0.4392260
C -0.1678310 -0.5515360 -0.8297590
H -2.1760170 0.1925860 -0.5230230
H -1.4749690 1.6628600 1.4661289
H 0.7011780 1.6364980 2.2684641
H 2.5059021 0.4998420 0.8916710
H 1.8562580 -1.1712400 -0.7822610
H 0.6800720 -0.1202270 2.3266070
H -1.5157320 -0.0682870 1.7424051
H 1.5160900 1.6213690 -0.0256310
H -0.9609830 1.4215230 -0.8434530
N -0.6627020 -1.5397780 -1.6946610
H -1.6066329 -1.3730340 -2.0128770
H -0.0549090 -1.7583090 -2.4719040
