18
 comment:c
C -1.1457760 0.4705830 -0.3049770
C -0.9758630 0.7157480 1.2077010
C 0.4995650 0.7385780 1.6719930
C 1.4978189 0.6516560 0.5050990
C 1.1140290 -0.4495520 -0.4498980
C -0.1637700 -0.5439660 -0.8368570
H -2.1761229 0.1563150 -0.5113190
H -1.4759560 1.6565510 1.4648650
H 0.6993170 1.6388080 2.2652869
H 2.5072241 0.4902650 0.8991570
H 1.8684300 -1.1458490 -0.8119890
H 0.6811650 -0.1172220 2.3314509
H -1.5120060 -0.0736800 1.7454740
H 1.5284700 1.6219010 -0.0163940
H -0.9915560 1.4166750 -0.8436190
N -0.6831170 -1.5326360 -1.6819561
H -1.4845510 -1.2316440 -2.2199800
H 0.0079530 -1.9653730 -2.2811401
