18
 comment:c
C -1.0029440 0.6656400 -1.0831980
C -1.1617610 0.6698120 2.0294070
C 0.0908030 0.6781580 2.4695301
C 1.8713580 0.6216510 -0.1323680
C 1.1909180 -0.4200340 -0.6073770
C -0.2039140 -0.4100970 -1.1005549
H -2.0195329 0.6213900 -1.4656169
H -1.7329530 1.5874350 1.9063179
H 0.6035450 1.6024960 2.7279251
H 2.8906500 0.5074390 0.2252090
H 1.6744781 -1.3975700 -0.6200490
H 0.6605460 -0.2399130 2.5851350
H -1.6683420 -0.2540850 1.7644210
H 1.4436589 1.6191421 -0.0795430
H -0.6736460 1.6067740 -0.6606150
N -0.6494930 -1.6770720 -1.5169760
H -1.5312190 -1.6488380 -2.0130219
H 0.0364170 -2.1956530 -2.0514171
