18
 comment:c
C -1.1246980 0.5152270 -0.3189880
C -0.9819650 0.7200850 1.2010180
C 0.4920410 0.7283350 1.6724540
C 1.4936500 0.6523070 0.5041820
C 1.1027271 -0.4600770 -0.4334720
C -0.1695590 -0.5422200 -0.8283900
H -2.1629419 0.2637060 -0.5687090
H -1.4844720 1.6519800 1.4843770
H 0.6964000 1.6197070 2.2770519
H 2.5061159 0.5016280 0.8933960
H 1.8297900 -1.2023550 -0.7537190
H 0.6699010 -0.1364540 2.3209240
H -1.5209330 -0.0871570 1.7094280
H 1.5082411 1.6181070 -0.0248400
H -0.9095130 1.4642860 -0.8328440
N -0.6285530 -1.5719700 -1.7000270
H -1.6287420 -1.7095190 -1.6039240
H -0.4430570 -1.3559500 -2.6734159
