18
 comment:c
C -1.0466810 0.6438820 -0.3966510
C -1.0113580 0.6437150 1.1957070
C 0.4589630 0.6434940 1.7133280
C 1.4780010 0.6655780 0.4946610
C 1.1199861 -0.4130110 -0.4954000
C -0.1418150 -0.4572110 -0.9231930
H -2.0725119 0.5376010 -0.7689820
H -1.5576880 1.5187989 1.5672311
H 0.6476440 1.5134690 2.3536799
H 2.5075450 0.5554000 0.8503390
H 1.7965660 -1.2381420 -0.7036070
H 0.6553080 -0.2464790 2.3214691
H -1.5491270 -0.2398690 1.5592600
H 1.4169101 1.6590830 0.0275590
H -0.6879560 1.6240950 -0.7398620
N -0.6449740 -1.6445470 -1.5644350
H -1.5123590 -1.9157020 -1.1061490
H -0.8890480 -1.4744890 -2.5372760
