18
 comment:c
C -1.0300061 0.6480960 -0.6033390
C -1.0356110 0.6414930 1.4216070
C 0.3450260 0.6402200 1.9098040
C 1.5844860 0.6519390 0.3344010
C 1.1346281 -0.4053980 -0.5275490
C -0.1448750 -0.4250570 -0.9853510
H -2.0650339 0.5700990 -0.9432580
H -1.6094730 1.5503520 1.6037760
H 0.6735780 1.5486259 2.4158890
H 2.6019001 0.5646340 0.7180360
H 1.7126960 -1.3225840 -0.6116000
H 0.6733430 -0.2606060 2.4261780
H -1.6176100 -0.2585260 1.6174730
H 1.3590560 1.6732010 0.0248140
H -0.6438070 1.6620990 -0.7046430
N -0.6386820 -1.6636250 -1.5393790
H -1.5130680 -1.9147100 -1.0834740
H -0.8626610 -1.5495750 -2.5247560
