18
 comment:c
C -0.9919000 0.6570860 -1.1304981
C -1.1834520 0.6921630 2.1334801
C 0.0638440 0.7105490 2.5882001
C 1.8949560 0.6151230 -0.2179290
C 1.1821570 -0.4421980 -0.6014160
C -0.1984440 -0.4229000 -1.1355450
H -1.9930540 0.6251970 -1.5527480
H -1.7925839 1.5927820 2.0941119
H 0.5327650 1.6257480 2.9434559
H 2.8974230 0.4983390 0.1834960
H 1.6221560 -1.4355540 -0.5056430
H 0.6722450 -0.1895780 2.6186039
H -1.6455690 -0.2212650 1.7692480
H 1.5097760 1.6291029 -0.2873060
H -0.6774270 1.5851361 -0.6685080
N -0.6346300 -1.6846440 -1.5754890
H -1.5058590 -1.6524210 -2.0895030
H 0.0631950 -2.1995239 -2.0980060
