19
 comment:c
C 1.7962480 2.0362539 0.5270930
C -1.3902500 1.1596071 -1.1551880
C -1.3209341 -0.1589400 -0.9948080
C 1.8639460 -1.0222650 0.2946550
C 2.3574600 -0.1317580 -0.5668450
C 2.0381019 1.3067091 -0.5641490
H 2.1456120 -2.0702651 0.2503660
H 3.0312760 -0.4719930 -1.3529590
H -1.1459080 -0.8258020 -1.8337430
H -1.2499940 1.6185440 -2.1294069
H 1.1529371 -0.7427820 1.0692760
H 1.8738700 1.6069050 1.5244570
H 2.0162699 1.7946560 -1.5391730
H 1.5560091 3.0939600 0.4604540
H -1.6174490 1.8413280 -0.3373800
C -1.5587879 -0.8645710 0.2998080
O -1.3275070 -0.1535390 1.4306870
H -0.8585110 0.6640550 1.2047729
O -1.9477540 -2.0008941 0.3584770
