19
 comment:c
C 0.8801060 1.9328130 -0.0865380
C -0.3698260 1.2294070 -0.6478980
C -0.3255690 -0.3154040 -0.5179390
C 1.0592680 -0.8452750 -0.0503190
C 2.1937110 -0.0501570 -0.6390650
C 2.1210980 1.2796201 -0.6360170
H 1.1335890 -1.9091660 -0.2923150
H 3.0610130 -0.5736740 -1.0342880
H -0.5376960 -0.7629360 -1.4913890
H -0.4404130 1.4807030 -1.7104280
H 1.1147929 -0.7778780 1.0475640
H 0.8907460 1.8713540 1.0144960
H 2.9242229 1.8959889 -1.0330740
H 0.8444390 2.9994709 -0.3290890
H -1.2783890 1.6375930 -0.1867000
C -1.3782790 -0.8986500 0.4144130
O -1.5809040 -0.2375400 1.5821790
H -1.0196260 0.5494230 1.6219161
O -1.9771740 -1.9162250 0.1916590
