19
 comment:c
C 1.7945290 2.0605550 0.4456460
C -1.3659509 1.1837000 -1.0890740
C -1.2907810 -0.1372080 -0.9531850
C 1.8168139 -0.9978310 0.2850460
C 2.3847001 -0.1416610 -0.5656110
C 2.1241021 1.3077700 -0.6057830
H 2.0587850 -2.0564780 0.2713940
H 3.0820651 -0.5227700 -1.3112960
H -1.0628370 -0.7821700 -1.7964129
H -1.1796350 1.6640970 -2.0448780
H 1.0846850 -0.6779680 1.0234900
H 1.7441450 1.6431130 1.4499570
H 2.2260070 1.7845480 -1.5810710
H 1.6027000 3.1250801 0.3429240
H -1.6427310 1.8483120 -0.2721170
C -1.5748030 -0.8791520 0.3113580
O -1.4363919 -0.1871390 1.4691041
H -1.0146090 0.6651000 1.2862279
O -1.9156650 -2.0321469 0.3259420
