19
 comment:c
C 1.3804920 2.0256231 0.1669090
C -0.8343350 1.2174510 -0.8468170
C -0.8683360 -0.1137550 -0.7569410
C 1.5018580 -0.9472660 0.1816380
C 2.2121890 -0.1636300 -0.6397490
C 2.1545341 1.2924180 -0.6446830
H 1.4906861 -2.0278490 0.0729770
H 2.7879729 -0.6290830 -1.4379380
H -0.5599580 -0.7402300 -1.5852031
H -0.4895670 1.7107410 -1.7476820
H 0.9607640 -0.5552550 1.0371979
H 0.8844330 1.5927590 1.0304370
H 2.6919439 1.7980160 -1.4456739
H 1.3020570 3.1039090 0.0608050
H -1.2553900 1.8798280 -0.0920570
C -1.4765350 -0.8767420 0.3633920
O -1.6380930 -0.2325350 1.5481690
H -1.2931080 0.6684200 1.4877909
O -1.8260850 -2.0221610 0.2495800
