19
 comment:c
C 1.0132380 1.8985090 0.0187020
C -0.4627170 1.3151571 -0.6747760
C -0.5322180 -0.2033950 -0.6187030
C 1.1792660 -0.8457290 0.0711320
C 2.2090421 -0.1041400 -0.6630360
C 2.1457570 1.2360500 -0.6717900
H 1.1952970 -1.9309580 -0.0367540
H 2.8868251 -0.6380970 -1.3256150
H -0.6205860 -0.6971510 -1.5854191
H -0.4944940 1.6794170 -1.7048980
H 1.0719130 -0.5674820 1.1232290
H 0.9590750 1.6246840 1.0805590
H 2.7803791 1.8192310 -1.3354880
H 1.0452260 2.9894800 -0.0488930
H -1.2847100 1.8067549 -0.1372240
C -1.4334120 -0.8832350 0.3714880
O -1.6454240 -0.2270670 1.5434980
H -1.2720850 0.6637090 1.5004230
O -1.8396430 -2.0087061 0.2378940
