19
 comment:c
C 0.9845160 1.8903511 0.0057750
C -0.4319630 1.3212060 -0.6594410
C -0.4889870 -0.2162880 -0.5997240
C 1.1378580 -0.8329500 0.0536510
C 2.2057171 -0.1013030 -0.6661450
C 2.1424079 1.2346390 -0.6756860
H 1.1638310 -1.9189980 -0.0542050
H 2.9093020 -0.6432060 -1.2943850
H -0.6109360 -0.6903240 -1.5743110
H -0.4790280 1.6696510 -1.6953800
H 1.0777650 -0.5772720 1.1175700
H 0.9589250 1.6332450 1.0743390
H 2.8005519 1.8275430 -1.3069640
H 1.0226810 2.9815340 -0.0636450
H -1.2767020 1.7954770 -0.1400540
C -1.4284350 -0.8847050 0.3744710
O -1.6472009 -0.2265140 1.5427051
H -1.2681370 0.6619360 1.5015490
O -1.8414660 -2.0069289 0.2365940
