19
 comment:c
C 1.7922000 2.0264859 0.5526900
C -1.3976930 1.1527370 -1.1764290
C -1.3327920 -0.1650690 -1.0081400
C 1.8797880 -1.0311490 0.2974810
C 2.3459661 -0.1298720 -0.5679890
C 2.0106759 1.3049760 -0.5489710
H 2.1721151 -2.0756040 0.2400840
H 3.0070629 -0.4573340 -1.3701680
H -1.1793470 -0.8392370 -1.8455000
H -1.2745470 1.6042290 -2.1564789
H 1.1810640 -0.7648120 1.0877171
H 1.9031330 1.5931360 1.5451180
H 1.9555910 1.7971970 -1.5205690
H 1.5393370 3.0819981 0.4984540
H -1.6038120 1.8407331 -0.3583920
C -1.5521500 -0.8587060 0.2962670
O -1.2901990 -0.1416650 1.4164619
H -0.8068810 0.6636120 1.1754130
O -1.9545580 -1.9894609 0.3707650
