19
 comment:c
C 1.6454250 2.0769241 0.2858280
C -1.1831180 1.2220670 -0.9702300
C -1.1606240 -0.1037840 -0.8663200
C 1.7114450 -0.9798230 0.2565210
C 2.3021209 -0.1665920 -0.6219950
C 2.2493141 1.3053980 -0.6208880
H 1.7959419 -2.0590041 0.1710610
H 2.8734150 -0.6128370 -1.4349170
H -0.8669160 -0.7284840 -1.7039360
H -0.8887490 1.7192661 -1.8890320
H 1.1268220 -0.6107140 1.0969000
H 1.1498020 1.6597840 1.1608090
H 2.7507820 1.7920491 -1.4568070
H 1.6542120 3.1598721 0.2029290
H -1.5153120 1.8818420 -0.1693940
C -1.5597340 -0.8872680 0.3400520
O -1.6062829 -0.2251500 1.5218050
H -1.2779300 0.6769380 1.4055049
O -1.8268850 -2.0590510 0.2913810
