19
 comment:c
C 1.2662990 1.9793720 0.1144540
C -0.7112310 1.2268389 -0.7893970
C -0.7617760 -0.1260250 -0.7130570
C 1.4091030 -0.9123320 0.1454120
C 2.2043040 -0.1509450 -0.6402920
C 2.1431010 1.2790200 -0.6473050
H 1.3543791 -1.9905070 0.0248460
H 2.7798519 -0.6314740 -1.4292740
H -0.5345270 -0.7356710 -1.5785310
H -0.4658280 1.7110300 -1.7268180
H 0.9491990 -0.5236360 1.0477140
H 0.8677730 1.5651650 1.0353760
H 2.6806610 1.8006880 -1.4373860
H 1.1658300 3.0558910 0.0057100
H -1.2200520 1.8693910 -0.0728950
C -1.4506410 -0.8770040 0.3664880
O -1.6412950 -0.2299980 1.5476490
H -1.2876810 0.6680890 1.4985600
O -1.8303530 -2.0125389 0.2415240
