19
 comment:c
C 1.7777570 2.0676470 0.4046020
C -1.3464791 1.1962560 -1.0574410
C -1.2723560 -0.1257280 -0.9320740
C 1.7881581 -0.9892140 0.2757960
C 2.3901689 -0.1487950 -0.5673310
C 2.1660190 1.3062570 -0.6202590
H 2.0046890 -2.0533719 0.2679720
H 3.0910399 -0.5498110 -1.2990201
H -1.0220420 -0.7614670 -1.7759120
H -1.1375231 1.6853490 -2.0040171
H 1.0549200 -0.6506860 1.0046020
H 1.6453770 1.6545830 1.4033200
H 2.3451290 1.7806160 -1.5853890
H 1.6163560 3.1356590 0.2878220
H -1.6432960 1.8545790 -0.2422350
C -1.5774410 -0.8834390 0.3180680
O -1.4860330 -0.1999290 1.4854760
H -1.0895510 0.6677360 1.3214890
O -1.8918380 -2.0440290 0.3141930
