19
 comment:c
C 0.9459550 1.8839020 -0.0156430
C -0.3826760 1.3164790 -0.6337370
C -0.3985720 -0.2419040 -0.5567560
C 1.0533119 -0.8058010 0.0118570
C 2.1887939 -0.0966830 -0.6718290
C 2.1329889 1.2351919 -0.6821210
H 1.0875340 -1.8919590 -0.1053730
H 2.9478350 -0.6558420 -1.2140059
H -0.5644400 -0.6840440 -1.5417989
H -0.4453630 1.6355810 -1.6787800
H 1.0696011 -0.5984160 1.0916110
H 0.9566680 1.6563300 1.0615530
H 2.8459430 1.8437160 -1.2335960
H 0.9776710 2.9741931 -0.1012780
H -1.2553610 1.7652510 -0.1379750
C -1.4098860 -0.8890390 0.3834220
O -1.6534131 -0.2243310 1.5406820
H -1.2558470 0.6564120 1.5091350
O -1.8460140 -2.0000899 0.2315430
