19
 comment:c
C 0.3176570 1.4065480 0.5314030
C -1.5372490 0.6930380 -0.3198070
C -1.5986170 -0.6892920 -0.2501210
C 0.4726530 -1.4465200 0.5703940
C 1.3166370 -0.6893830 -0.2016790
C 1.2552280 0.7165280 -0.2089990
H 0.4239160 -2.5255060 0.4506050
H 1.9038130 -1.1806780 -0.9752350
H -1.4415240 -1.2820680 -1.1428280
H -1.3713779 1.1577350 -1.2854420
H 0.0817670 -1.0750560 1.5120990
H 0.0005600 1.0210119 1.4970250
H 1.8051651 1.2503700 -0.9820380
H 0.2427870 2.4871399 0.4337900
H -2.1247461 1.3096991 0.3594430
C -2.3324039 -1.4286020 0.8079400
O -2.5300350 -0.7796520 1.9885290
H -2.1738811 0.1175700 1.9417460
O -2.7203491 -2.5618820 0.6821750
