19
 comment:c
C 1.1436030 1.9373870 0.0675900
C -0.5898770 1.2671980 -0.7348690
C -0.6619120 -0.1568450 -0.6720270
C 1.3103160 -0.8817850 0.1142780
C 2.2072070 -0.1250280 -0.6489570
C 2.1460290 1.2538400 -0.6563950
H 1.2768331 -1.9624820 -0.0015910
H 2.8123269 -0.6294130 -1.3998260
H -0.5838820 -0.7233210 -1.5929230
H -0.5023580 1.7020710 -1.7269289
H 1.0032750 -0.5318720 1.0961440
H 0.9199260 1.5856121 1.0747250
H 2.7131960 1.8016250 -1.4065959
H 1.1067040 3.0227599 -0.0164490
H -1.2634940 1.8470070 -0.1011240
C -1.4413590 -0.8792980 0.3662710
O -1.6426049 -0.2283890 1.5459270
H -1.2820320 0.6672680 1.4998300
O -1.8345680 -2.0109429 0.2399040
