19
 comment:c
C 1.4340720 2.0447991 0.1907580
C -0.8945920 1.2188500 -0.8736490
C -0.9229660 -0.1093560 -0.7783840
C 1.5466861 -0.9616780 0.1984840
C 2.2202981 -0.1662400 -0.6392040
C 2.1653500 1.2960230 -0.6422220
H 1.5676340 -2.0428090 0.0973430
H 2.7994571 -0.6249710 -1.4390820
H -0.5984590 -0.7386270 -1.5990350
H -0.5318830 1.7109730 -1.7686970
H 0.9839390 -0.5765120 1.0441130
H 0.9152960 1.6157520 1.0437320
H 2.7063761 1.7949229 -1.4452170
H 1.3861290 3.1256289 0.0926160
H -1.2954290 1.8847640 -0.1106000
C -1.4938010 -0.8780200 0.3598680
O -1.6358130 -0.2335570 1.5463070
H -1.2969440 0.6691730 1.4766790
O -1.8245740 -2.0299239 0.2568130
