19
 comment:c
C 1.3622350 2.0184460 0.1585530
C -0.8142140 1.2175320 -0.8374670
C -0.8503500 -0.1153420 -0.7497060
C 1.4866450 -0.9417830 0.1757560
C 2.2101970 -0.1623740 -0.6397560
C 2.1516991 1.2908820 -0.6452400
H 1.4650670 -2.0219581 0.0645130
H 2.7848179 -0.6301620 -1.4373339
H -0.5503020 -0.7401990 -1.5820301
H -0.4793940 1.7108850 -1.7418680
H 0.9551250 -0.5481710 1.0362620
H 0.8768950 1.5856560 1.0279040
H 2.6878390 1.7988560 -1.4454950
H 1.2749660 3.0958340 0.0502260
H -1.2441330 1.8782270 -0.0864020
C -1.4711970 -0.8765280 0.3643090
O -1.6387661 -0.2320970 1.5483910
H -1.2920650 0.6683250 1.4906650
O -1.8266920 -2.0198979 0.2475980
