19
 comment:c
C 0.9619020 1.8850230 -0.0056730
C -0.4053000 1.3221350 -0.6458440
C -0.4437190 -0.2291980 -0.5789170
C 1.0952110 -0.8192520 0.0337180
C 2.1994720 -0.0990090 -0.6689480
C 2.1380279 1.2343270 -0.6792100
H 1.1277620 -1.9057250 -0.0764110
H 2.9300101 -0.6491590 -1.2578410
H -0.5914880 -0.6856670 -1.5595880
H -0.4619640 1.6560550 -1.6865220
H 1.0765580 -0.5869620 1.1066459
H 0.9570600 1.6424850 1.0675740
H 2.8215179 1.8361050 -1.2739600
H 0.9999500 2.9760051 -0.0805070
H -1.2660919 1.7826540 -0.1399210
C -1.4210430 -0.8865400 0.3782630
O -1.6497101 -0.2256950 1.5418160
H -1.2631620 0.6596750 1.5039880
O -1.8435450 -2.0042591 0.2346630
