19
 comment:c
C 1.6879770 1.9122061 0.7634360
C -1.4703100 1.1032660 -1.3542020
C -1.4354230 -0.2031410 -1.1055270
C 1.9999270 -1.1101940 0.2992990
C 2.2516351 -0.1255230 -0.5644470
C 1.8090450 1.2717900 -0.4035210
H 2.3680789 -2.1171939 0.1256100
H 2.8052101 -0.3466890 -1.4765620
H -1.4654230 -0.9367800 -1.9058700
H -1.5040900 1.4858230 -2.3703830
H 1.4048100 -0.9556820 1.1966110
H 1.9608790 1.4364880 1.7033480
H 1.5860111 1.8104780 -1.3251410
H 1.3544590 2.9456580 0.8113620
H -1.4967190 1.8458600 -0.5591800
C -1.4789079 -0.7930790 0.2672890
O -0.9734270 -0.0386800 1.2685890
H -0.4233900 0.6739790 0.8988390
O -1.9655510 -1.8713970 0.4879780
