19
 comment:c
C 1.7008940 1.9281120 0.7364230
C -1.4606770 1.1095930 -1.3323760
C -1.4211580 -0.1987950 -1.0952100
C 1.9865290 -1.1017489 0.3016910
C 2.2626710 -0.1262820 -0.5649620
C 1.8286550 1.2756090 -0.4228860
H 2.3488960 -2.1133490 0.1431800
H 2.8310750 -0.3597340 -1.4648890
H -1.4280790 -0.9251500 -1.9026620
H -1.4750330 1.5014130 -2.3454709
H 1.3768460 -0.9348110 1.1869880
H 1.9625800 1.4597770 1.6832680
H 1.6190050 1.8067250 -1.3520110
H 1.3743730 2.9643049 0.7710210
H -1.5100980 1.8449470 -0.5317370
C -1.4876159 -0.8015750 0.2708110
O -1.0074520 -0.0510790 1.2884800
H -0.4595810 0.6701000 0.9331200
O -1.9687140 -1.8857540 0.4733180
