19
 comment:c
C 0.9981810 1.8941460 0.0120850
C -0.4468670 1.3187600 -0.6669100
C -0.5109250 -0.2098450 -0.6094550
C 1.1587710 -0.8394820 0.0627140
C 2.2076869 -0.1026230 -0.6646420
C 2.1442349 1.2351960 -0.6737780
H 1.1801330 -1.9251601 -0.0449500
H 2.8982069 -0.6405370 -1.3106070
H -0.6170460 -0.6935250 -1.5803460
H -0.4871260 1.6748850 -1.7001179
H 1.0757420 -0.5724410 1.1211100
H 0.9593860 1.6290179 1.0776200
H 2.7904379 1.8232991 -1.3217150
H 1.0340650 2.9852750 -0.0560180
H -1.2812051 1.8011820 -0.1390700
C -1.4311709 -0.8839380 0.3728920
O -1.6462359 -0.2268140 1.5431080
H -1.2702039 0.6628710 1.5008680
O -1.8405271 -2.0079100 0.2373060
