19
 comment:c
C 1.1847250 1.9502280 0.0820180
C -0.6292350 1.2509160 -0.7525370
C -0.6945220 -0.1442900 -0.6852510
C 1.3441221 -0.8910310 0.1237760
C 2.2052431 -0.1342440 -0.6450080
C 2.1439469 1.2626740 -0.6523280
H 1.2983090 -1.9704280 0.0049960
H 2.7971900 -0.6296720 -1.4122660
H -0.5632020 -0.7285940 -1.5878980
H -0.4902340 1.7064530 -1.7274270
H 0.9795650 -0.5254420 1.0787330
H 0.8988930 1.5749511 1.0623430
H 2.6984360 1.8006790 -1.4191630
H 1.1214900 3.0324099 -0.0112260
H -1.2456470 1.8564680 -0.0880720
C -1.4432210 -0.8784140 0.3661870
O -1.6423470 -0.2288350 1.5465070
H -1.2845020 0.6677810 1.4996980
O -1.8332320 -2.0111120 0.2402070
