19
 comment:c
C 1.5358280 2.0689111 0.2343630
C -1.0198420 1.2231650 -0.9200470
C -1.0356669 -0.1033360 -0.8204820
C 1.6319940 -0.9779680 0.2293510
C 2.2489500 -0.1679880 -0.6351170
C 2.1993711 1.3010170 -0.6341650
H 1.6957400 -2.0580380 0.1362030
H 2.8234079 -0.6176110 -1.4438490
H -0.7152660 -0.7316720 -1.6447150
H -0.6674970 1.7150420 -1.8204670
H 1.0552810 -0.6050860 1.0727460
H 1.0053130 1.6491250 1.0863520
H 2.7361250 1.7903820 -1.4461600
H 1.5349571 3.1517999 0.1487320
H -1.3846970 1.8902730 -0.1397330
C -1.5283231 -0.8824630 0.3510990
O -1.6297190 -0.2324490 1.5372230
H -1.3039290 0.6733300 1.4464850
O -1.8226420 -2.0462289 0.2736510
