19
 comment:c
C 1.6007830 2.0753429 0.2631960
C -1.1113660 1.2234900 -0.9480860
C -1.1083000 -0.1028310 -0.8468640
C 1.6806070 -0.9795380 0.2464680
C 2.2769611 -0.1673930 -0.6295940
C 2.2287350 1.3037080 -0.6273130
H 1.7559640 -2.0590920 0.1567360
H 2.8448720 -0.6151730 -1.4440250
H -0.8007270 -0.7288230 -1.6782650
H -0.7878260 1.7186320 -1.8579340
H 1.1043760 -0.6091750 1.0918510
H 1.0836550 1.6580840 1.1252640
H 2.7496660 1.7905900 -1.4510920
H 1.6115839 3.1583829 0.1811300
H -1.4573940 1.8866251 -0.1558580
C -1.5480040 -0.8857610 0.3448990
O -1.6212590 -0.2289110 1.5285510
H -1.2965420 0.6757800 1.4235370
O -1.8232050 -2.0551801 0.2843130
