19
 comment:c
C 0.9244060 1.9287720 -0.0635380
C -0.3563240 1.2659450 -0.6062990
C -0.3390870 -0.2809240 -0.5074420
C 1.0386930 -0.8383440 -0.0523450
C 2.1760640 -0.0741020 -0.6734280
C 2.1331620 1.2569590 -0.6613830
H 1.0814620 -1.9067841 -0.2802590
H 3.0148900 -0.6171810 -1.1021340
H -0.5529470 -0.7061710 -1.4907080
H -0.4492930 1.5398320 -1.6615649
H 1.1107250 -0.7539000 1.0434520
H 0.9608910 1.8383770 1.0344130
H 2.9335790 1.8597929 -1.0837680
H 0.9086490 3.0011711 -0.2813890
H -1.2447530 1.6887450 -0.1186030
C -1.3827980 -0.8964280 0.4144820
O -1.6739810 -0.2170010 1.5508970
H -1.1741440 0.6103270 1.5821400
O -1.8877770 -1.9679450 0.2106820
