19
 comment:c
C 1.6601110 2.0771439 0.2943900
C -1.2065480 1.2211330 -0.9779850
C -1.1767960 -0.1044550 -0.8727370
C 1.7190560 -0.9800590 0.2586850
C 2.3117480 -0.1662280 -0.6178030
C 2.2532091 1.3058050 -0.6194720
H 1.8100140 -2.0589950 0.1769920
H 2.8902431 -0.6115570 -1.4261310
H -0.8872990 -0.7290070 -1.7119941
H -0.9220450 1.7187260 -1.8997380
H 1.1250470 -0.6116160 1.0927870
H 1.1791220 1.6601681 1.1776620
H 2.7420311 1.7922800 -1.4629580
H 1.6634160 3.1598940 0.2086460
H -1.5349660 1.8798380 -0.1747400
C -1.5628670 -0.8875010 0.3383320
O -1.5984200 -0.2237000 1.5194950
H -1.2676840 0.6770310 1.3991110
O -1.8292960 -2.0595660 0.2935790
