19
 comment:c
C 1.6159290 2.0760651 0.2704130
C -1.1351720 1.2231990 -0.9552520
C -1.1260440 -0.1030150 -0.8533440
C 1.6918780 -0.9795740 0.2503030
C 2.2848110 -0.1671370 -0.6276710
C 2.2363701 1.3043441 -0.6251220
H 1.7692870 -2.0590279 0.1613120
H 2.8517511 -0.6145460 -1.4429899
H -0.8229630 -0.7284430 -1.6869080
H -0.8209130 1.7191620 -1.8679770
H 1.1154979 -0.6095920 1.0958250
H 1.1032500 1.6587729 1.1352410
H 2.7526751 1.7910920 -1.4518909
H 1.6276920 3.1591229 0.1889750
H -1.4765710 1.8851600 -0.1600570
C -1.5522630 -0.8864030 0.3433220
O -1.6175441 -0.2277490 1.5262970
H -1.2919890 0.6762350 1.4176559
O -1.8239930 -2.0568211 0.2867460
