19
 comment:c
C 1.7946550 2.0315149 0.5400340
C -1.3940090 1.1560940 -1.1659240
C -1.3267990 -0.1620740 -1.0015219
C 1.8719710 -1.0266910 0.2961260
C 2.3517001 -0.1307330 -0.5674810
C 2.0242779 1.3059500 -0.5565840
H 2.1589880 -2.0729451 0.2452180
H 3.0190730 -0.4645500 -1.3618040
H -1.1623480 -0.8326290 -1.8396740
H -1.2621670 1.6112660 -2.1431091
H 1.1672930 -0.7537760 1.0788100
H 1.8895640 1.6001830 1.5350220
H 1.9852660 1.7960230 -1.5300260
H 1.5479850 3.0881350 0.4796210
H -1.6109090 1.8409820 -0.3480190
C -1.5555609 -0.8616940 0.2980270
O -1.3090410 -0.1476360 1.4236940
H -0.8328840 0.6639300 1.1903570
O -1.9512870 -1.9952760 0.3645350
