19
 comment:c
C 1.7232740 2.0741539 0.3442960
C -1.2965140 1.2120020 -1.0161780
C -1.2345769 -0.1117300 -0.9024280
C 1.7434150 -0.9825910 0.2630640
C 2.3644509 -0.1609450 -0.5855090
C 2.2322259 1.3061470 -0.6213160
H 1.8973590 -2.0568190 0.2243120
H 3.0218780 -0.5922060 -1.3395010
H -0.9594410 -0.7385350 -1.7450860
H -1.0535580 1.7087650 -1.9503840
H 1.0593669 -0.6229240 1.0288260
H 1.3929240 1.6588970 1.2951860
H 2.5916650 1.7884670 -1.5300380
H 1.6513050 3.1520290 0.2309040
H -1.6146621 1.8667170 -0.2057920
C -1.5722690 -0.8866140 0.3285480
O -1.5454270 -0.2138370 1.5052260
H -1.1883270 0.6741020 1.3636841
O -1.8538899 -2.0554509 0.3030190
