19
 comment:c
C 1.6768280 1.8882650 0.8086360
C -1.4863530 1.0895960 -1.3905870
C -1.4608409 -0.2127930 -1.1204619
C 2.0206120 -1.1206340 0.2906850
C 2.2372980 -0.1208110 -0.5651960
C 1.7862370 1.2699200 -0.3715840
H 2.3945141 -2.1207750 0.0915910
H 2.7674539 -0.3221830 -1.4955150
H -1.5273030 -0.9588530 -1.9070810
H -1.5487940 1.4552410 -2.4116280
H 1.4482800 -0.9855200 1.2057300
H 1.9632390 1.3970170 1.7363451
H 1.5462320 1.8238680 -1.2798170
H 1.3363160 2.9180720 0.8802870
H -1.4765730 1.8453211 -0.6076320
C -1.4692750 -0.7811880 0.2625490
O -0.9290820 -0.0198970 1.2384109
H -0.3780100 0.6814860 0.8487060
O -1.9612420 -1.8511230 0.5117390
