19
 comment:c
C 1.7711771 1.9985000 0.6137610
C -1.4146240 1.1372570 -1.2290050
C -1.3621570 -0.1783360 -1.0396900
C 1.9153720 -1.0550430 0.3013840
C 2.3186500 -0.1271630 -0.5674850
C 1.9434890 1.2969980 -0.5093410
H 2.2358899 -2.0890679 0.2130410
H 2.9541740 -0.4216600 -1.4024709
H -1.2646140 -0.8704770 -1.8708260
H -1.3355780 1.5694309 -2.2223461
H 1.2397890 -0.8231110 1.1220030
H 1.9521750 1.5559500 1.5915630
H 1.8173510 1.7989070 -1.4693830
H 1.4881300 3.0475571 0.5894880
H -1.5660650 1.8414670 -0.4130180
C -1.5330120 -0.8416660 0.2877910
O -1.1943340 -0.1112680 1.3777530
H -0.6833450 0.6649400 1.0976650
O -1.9665550 -1.9574890 0.4038710
