19
 comment:c
C 1.7681180 2.0691280 0.3916080
C -1.3379880 1.2000310 -1.0480250
C -1.2654330 -0.1223170 -0.9256030
C 1.7778790 -0.9872330 0.2723550
C 2.3889420 -0.1513850 -0.5689380
C 2.1802609 1.3059580 -0.6225920
H 1.9838810 -2.0534451 0.2625180
H 3.0870540 -0.5589850 -1.2995450
H -1.0089411 -0.7556350 -1.7693870
H -1.1217500 1.6913559 -1.9917710
H 1.0484951 -0.6433190 1.0024379
H 1.6013720 1.6563500 1.3852969
H 2.3916891 1.7811360 -1.5806680
H 1.6204799 3.1387770 0.2720880
H -1.6402060 1.8569520 -0.2336060
C -1.5771320 -0.8843380 0.3202520
O -1.4999940 -0.2032550 1.4900980
H -1.1115650 0.6689120 1.3313990
O -1.8835731 -2.0470409 0.3112910
