19
 comment:c
C 0.8711020 1.9331141 -0.0907020
C -0.3726230 1.2222379 -0.6561080
C -0.3227550 -0.3220470 -0.5199290
C 1.0632120 -0.8454210 -0.0483380
C 2.1965690 -0.0452070 -0.6323890
C 2.1179349 1.2842220 -0.6318170
H 1.1438570 -1.9088330 -0.2906010
H 3.0686109 -0.5651390 -1.0218869
H -0.5334870 -0.7742480 -1.4914761
H -0.4384230 1.4692889 -1.7199301
H 1.1152080 -0.7788900 1.0497550
H 0.8766650 1.8758050 1.0106860
H 2.9206109 1.9034210 -1.0253659
H 0.8315780 2.9988301 -0.3367650
H -1.2850630 1.6276040 -0.2003120
C -1.3771321 -0.8992560 0.4140270
O -1.5615480 -0.2437310 1.5882180
H -0.9887190 0.5348910 1.6292070
O -1.9945230 -1.9047270 0.1872540
