19
 comment:c
C 0.8620430 1.9334660 -0.0948750
C -0.3754420 1.2150120 -0.6640360
C -0.3198020 -0.3287140 -0.5216750
C 1.0673800 -0.8454430 -0.0463530
C 2.1994240 -0.0399900 -0.6258820
C 2.1146340 1.2890490 -0.6278150
H 1.1544100 -1.9083170 -0.2889530
H 3.0761580 -0.5562090 -1.0097580
H -0.5291170 -0.7854910 -1.4913440
H -0.4366920 1.4578490 -1.7290910
H 1.1160890 -0.7798920 1.0519331
H 0.8626390 1.8803070 1.0068229
H 2.9167030 1.9111691 -1.0179840
H 0.8185310 2.9981999 -0.3444920
H -1.2916590 1.6175060 -0.2134990
C -1.3759310 -0.9000090 0.4137040
O -1.5424850 -0.2505850 1.5941930
H -0.9583220 0.5195930 1.6364220
O -2.0117099 -1.8929020 0.1827410
