18
 comment:c
C 0.2942130 0.9706750 0.4499540
C -1.5484080 0.2419770 -0.1901900
C -1.4983460 -1.2278240 -0.2483150
C 0.2095680 -1.8398970 0.3141950
C 1.1822180 -1.0963210 -0.4604150
C 1.2114201 0.2564260 -0.4037300
H -2.1846001 0.6712480 0.5861730
H -2.1542740 -1.7427620 0.4570580
H 0.2445440 -2.9245200 0.1927160
H 1.7316840 -1.6086890 -1.2479800
H -1.5900050 -1.6599550 -1.2459490
H -1.6413780 0.7692000 -1.1398550
H 0.1552790 -1.5765010 1.3734360
H 0.1766460 0.5673850 1.4554260
H 1.7928420 0.8269440 -1.1281070
N 0.3752800 2.3875990 0.4760210
H 0.4538120 2.7905240 -0.4509650
H -0.4207120 2.8014629 0.9458890
