18
 comment:c
C 0.7237750 1.0042750 0.5088570
C -2.6291580 0.2626550 -0.3001860
C -2.3292270 -1.0239379 -0.4364290
C 1.0018719 -2.0420930 0.4635800
C 1.6161439 -1.1579810 -0.3292690
C 1.3394880 0.2787710 -0.4379490
H -3.5999150 0.5915220 0.0647270
H -3.0451500 -1.8041331 -0.1866410
H 1.3124790 -3.0824480 0.4909080
H 2.4129839 -1.5238540 -0.9777730
H -1.3563730 -1.3474500 -0.7997210
H -1.9109260 1.0398639 -0.5529340
H 0.1731440 -1.7628740 1.1115910
H 0.4084200 0.5356630 1.4392370
H 1.6913780 0.7817510 -1.3388640
N 0.5005330 2.3724599 0.4691620
H 0.5476620 2.7962959 -0.4475730
H -0.2883240 2.7019351 1.0054930
