18
 comment:c
C 0.6465260 1.0551471 0.5012140
C -2.3552771 0.1652440 -0.3372780
C -2.2487941 -1.1557781 -0.4215270
C 0.8443510 -1.9995110 0.4557270
C 1.4344140 -1.1371440 -0.3793850
C 1.3084360 0.3225850 -0.4088610
H -2.9161839 0.6450300 0.4626790
H -2.7137320 -1.8158441 0.3076240
H 1.0271831 -3.0670669 0.3755130
H 2.0914030 -1.5496860 -1.1456010
H -1.6829720 -1.6328380 -1.2166550
H -1.8871030 0.8206480 -1.0672560
H 0.1663220 -1.6820250 1.2447710
H 0.1584400 0.5732910 1.3458520
H 1.8006949 0.8381170 -1.2337040
N 0.5646790 2.4391429 0.5282430
H 0.7882380 2.9019649 -0.3426320
H -0.2685130 2.8154211 0.9561640
