18
 comment:c
C 0.7340180 0.9964630 0.5103790
C -2.6427770 0.2807580 -0.2833980
C -2.3245339 -0.9975610 -0.4518400
C 1.0206350 -2.0474660 0.4737940
C 1.6302760 -1.1634630 -0.3225220
C 1.3274580 0.2667930 -0.4472530
H -3.6346459 0.5887260 0.0405750
H -3.0461271 -1.7914990 -0.2713720
H 1.3488270 -3.0817389 0.5210380
H 2.4406710 -1.5226541 -0.9579760
H -1.3307270 -1.2998450 -0.7747600
H -1.9186070 1.0719820 -0.4662860
H 0.1774850 -1.7725050 1.1049030
H 0.4661880 0.5368930 1.4599980
H 1.6395000 0.7605080 -1.3677990
N 0.4822670 2.3594489 0.4574220
H 0.4789330 2.7680860 -0.4673850
H -0.2864160 2.6843181 1.0248810
