18
 comment:c
C 0.1106540 0.8954770 0.4191060
C -1.2581310 0.3622680 -0.0666170
C -1.3081840 -1.1822630 -0.1555880
C 0.0426070 -1.8424360 0.1934500
C 1.1735870 -1.1077050 -0.4774300
C 1.2032501 0.2194520 -0.3680430
H -2.0446560 0.7409880 0.5987430
H -2.0863140 -1.5818480 0.5044360
H 0.0256150 -2.9021001 -0.0811120
H 1.9351400 -1.6574590 -1.0260960
H -1.5812070 -1.4803060 -1.1736770
H -1.4461859 0.8016290 -1.0548530
H 0.1869780 -1.8074419 1.2838730
H 0.2261850 0.6031320 1.4746140
H 1.9859329 0.8363430 -0.8051430
N 0.2587210 2.3466721 0.3818300
H 0.0931090 2.6783690 -0.5663700
H -0.4581210 2.7782879 0.9593480
