18
 comment:c
C 0.7551130 0.9859710 0.5134540
C -2.6703639 0.3047510 -0.2472790
C -2.3174689 -0.9506030 -0.4985140
C 1.0653250 -2.0534251 0.5057470
C 1.6461790 -1.1734450 -0.3157860
C 1.2986550 0.2445100 -0.4643550
H -3.6968999 0.5768800 -0.0114730
H -3.0445440 -1.7595720 -0.4777950
H 1.4219160 -3.0767961 0.5789240
H 2.4609179 -1.5241950 -0.9505920
H -1.2897440 -1.2184460 -0.7339330
H -1.9415170 1.1123190 -0.2701350
H 0.2166720 -1.7837960 1.1319470
H 0.5772030 0.5473310 1.4936770
H 1.5311080 0.7172230 -1.4188430
N 0.4552510 2.3383911 0.4401410
H 0.3548670 2.7160790 -0.4922190
H -0.2648540 2.6629100 1.0680270
