18
 comment:c
C 0.1141600 0.9063060 0.4367480
C -1.2513490 0.3631180 -0.0421310
C -1.3181990 -1.1793530 -0.1369790
C 0.0343850 -1.8686830 0.1406320
C 1.1775351 -1.1046450 -0.4745450
C 1.2182460 0.2178310 -0.3232400
H -2.0389371 0.7473030 0.6187240
H -2.0682600 -1.5751950 0.5568470
H 0.0049730 -2.9033101 -0.2169060
H 1.9600331 -1.6397200 -1.0085150
H -1.6493020 -1.4625430 -1.1419680
H -1.4355950 0.8014380 -1.0316221
H 0.1911270 -1.9252820 1.2282630
H 0.2276720 0.6565430 1.5033180
H 2.0280180 0.8314260 -0.7133500
N 0.2499920 2.3574989 0.3375730
H 0.0779350 2.6431470 -0.6244990
H -0.4708180 2.8070610 0.8963130
