18
 comment:c
C 0.6516610 1.0532010 0.4972760
C -2.3970690 0.1670050 -0.3351420
C -2.2679610 -1.1522660 -0.4176800
C 0.8582970 -2.0018289 0.4501850
C 1.4567310 -1.1365319 -0.3757600
C 1.3250420 0.3231050 -0.4063540
H -3.0417111 0.6345410 0.4066380
H -2.7980850 -1.8222160 0.2558080
H 1.0477999 -3.0684371 0.3729190
H 2.1279080 -1.5455090 -1.1315180
H -1.6179110 -1.6162460 -1.1539360
H -1.8633530 0.8318010 -1.0095930
H 0.1649790 -1.6878890 1.2274010
H 0.1526780 0.5693840 1.3344340
H 1.8268790 0.8408640 -1.2239920
N 0.5691970 2.4369750 0.5262900
H 0.8066460 2.9026020 -0.3393910
H -0.2695080 2.8127270 0.9437480
