18
 comment:c
C 0.3831840 0.9929110 0.4665280
C -1.6338240 0.2051590 -0.2183170
C -1.5952400 -1.1888180 -0.2787470
C 0.3091360 -1.8679540 0.3372150
C 1.1785220 -1.1150841 -0.4490950
C 1.2094370 0.2739960 -0.3947570
H -2.1387081 0.6891390 0.6153830
H -2.1190410 -1.7628810 0.4826950
H 0.2837710 -2.9479730 0.2035210
H 1.6849329 -1.6029180 -1.2806470
H -1.5615290 -1.6723790 -1.2506670
H -1.5919530 0.7891940 -1.1328530
H 0.1030150 -1.5533630 1.3574170
H 0.1129860 0.5578870 1.4230390
H 1.7503750 0.8244900 -1.1647381
N 0.3737090 2.3915060 0.4774040
H 0.4823840 2.8067541 -0.4394040
H -0.4271080 2.7895410 0.9490630
