18
 comment:c
C 0.6182270 1.0563980 0.5114310
C -2.1793840 0.1706010 -0.3348860
C -2.1356561 -1.1539479 -0.4149580
C 0.7726970 -1.9959460 0.4622920
C 1.3456120 -1.1433750 -0.3953510
C 1.2490870 0.3168670 -0.4154700
H -2.5758801 0.6785650 0.5426300
H -2.4883571 -1.7906600 0.3933680
H 0.9203470 -3.0676301 0.3659090
H 1.9488120 -1.5688170 -1.1978590
H -1.7363560 -1.6598650 -1.2891099
H -1.8251340 0.8032850 -1.1442480
H 0.1510700 -1.6657370 1.2910960
H 0.1702440 0.5809000 1.3812340
H 1.7083350 0.8255250 -1.2632630
N 0.5217270 2.4395759 0.5240450
H 0.6915750 2.8923731 -0.3639190
H -0.2914150 2.8124051 0.9915240
