18
 comment:c
C 0.1139010 0.9095450 0.4419290
C -1.2490350 0.3637720 -0.0394770
C -1.3220900 -1.1786770 -0.1261270
C 0.0321430 -1.8767890 0.1223490
C 1.1781690 -1.1028481 -0.4746710
C 1.2218820 0.2176770 -0.3090620
H -2.0405109 0.7543200 0.6129460
H -2.0573490 -1.5687110 0.5865530
H -0.0020310 -2.9008319 -0.2642510
H 1.9670630 -1.6329540 -1.0043271
H -1.6801330 -1.4627680 -1.1215440
H -1.4255650 0.7956960 -1.0332130
H 0.1956480 -1.9661180 1.2066600
H 0.2236630 0.6708780 1.5114090
H 2.0395989 0.8301560 -0.6841810
N 0.2496180 2.3600080 0.3269150
H 0.0864750 2.6331301 -0.6403660
H -0.4771150 2.8157570 0.8728790
