18
 comment:c
C 0.0958550 0.9043530 0.3940660
C -1.3178639 0.3259510 -0.1092830
C -1.3167130 -1.2369610 -0.1832290
C 0.0591900 -1.8033240 0.2590040
C 1.1626850 -1.0898060 -0.4800210
C 1.1812429 0.2400840 -0.4129860
H -2.1035910 0.6738200 0.5737510
H -2.1069460 -1.6584110 0.4489840
H 0.1030030 -2.8867431 0.1095810
H 1.8712920 -1.6515070 -1.0845031
H -1.5195140 -1.5702220 -1.2070431
H -1.5409499 0.7540390 -1.0944920
H 0.1721860 -1.6330950 1.3397530
H 0.1904110 0.5572490 1.4340340
H 1.9074130 0.8553750 -0.9414880
N 0.3389570 2.3508770 0.4525280
H 0.3396090 2.7454050 -0.4855290
H -0.4078890 2.8188040 0.9591550
