18
 comment:c
C 0.6272690 1.0565970 0.5096710
C -2.2292421 0.1683940 -0.3382020
C -2.1721520 -1.1556350 -0.4193940
C 0.7964500 -1.9966820 0.4635570
C 1.3704400 -1.1414840 -0.3904660
C 1.2621360 0.3184910 -0.4153710
H -2.6625350 0.6711020 0.5247550
H -2.5504060 -1.7966740 0.3738900
H 0.9579630 -3.0669560 0.3741080
H 1.9899480 -1.5631790 -1.1824760
H -1.7350460 -1.6561340 -1.2785161
H -1.8484761 0.8052100 -1.1322410
H 0.1574560 -1.6700900 1.2806540
H 0.1713650 0.5796500 1.3746600
H 1.7272120 0.8285840 -1.2591250
N 0.5370600 2.4402201 0.5269990
H 0.7191380 2.8957601 -0.3571840
H -0.2796820 2.8150289 0.9866310
