18
 comment:c
C 0.1077100 0.9110110 0.3973210
C -1.3394190 0.3165470 -0.1167230
C -1.3284200 -1.2468430 -0.1883360
C 0.0636480 -1.8015490 0.2637710
C 1.1647710 -1.0880470 -0.4789060
C 1.1873770 0.2424220 -0.4133150
H -2.1214621 0.6637320 0.5708960
H -2.1132720 -1.6742750 0.4468200
H 0.1174170 -2.8860259 0.1249460
H 1.8548670 -1.6482739 -1.1059670
H -1.5271710 -1.5883760 -1.2103360
H -1.5631040 0.7475330 -1.1004330
H 0.1689300 -1.6200500 1.3431940
H 0.1937120 0.5609070 1.4364270
H 1.8983949 0.8533070 -0.9673550
N 0.3493090 2.3580570 0.4584270
H 0.3618880 2.7531941 -0.4791680
H -0.4050720 2.8237331 0.9557350
