18
 comment:c
C 0.5659870 1.0480820 0.5088960
C -1.9244430 0.1780500 -0.2927700
C -1.9177690 -1.1479840 -0.3717440
C 0.6035030 -1.9731450 0.4265070
C 1.2273951 -1.1473160 -0.4241110
C 1.2286969 0.3098150 -0.4004040
H -2.2443559 0.6958040 0.6096530
H -2.2280209 -1.7764330 0.4594670
H 0.6197140 -3.0491891 0.2784120
H 1.7345510 -1.5940470 -1.2794400
H -1.6231850 -1.6648920 -1.2793289
H -1.6367720 0.8034060 -1.1326780
H 0.0962510 -1.6203099 1.3197730
H 0.1242170 0.5734150 1.3807620
H 1.6981360 0.8177380 -1.2428290
N 0.4223930 2.4255800 0.4970820
H 0.5645550 2.8684371 -0.4003100
H -0.3945890 2.7796171 0.9718300
