18
 comment:c
C 0.1067850 0.8925720 0.4134390
C -1.2630180 0.3613690 -0.0752550
C -1.3046000 -1.1847219 -0.1600860
C 0.0463690 -1.8340100 0.2095490
C 1.1720459 -1.1070840 -0.4781560
C 1.1955210 0.2211030 -0.3821050
H -2.0502999 0.7371450 0.5909200
H -2.0898271 -1.5861560 0.4903710
H 0.0341680 -2.8995769 -0.0410530
H 1.9275190 -1.6602820 -1.0315870
H -1.5601929 -1.4886980 -1.1809360
H -1.4529480 0.7991920 -1.0637510
H 0.1875840 -1.7727920 1.2991880
H 0.2212880 0.5858430 1.4649420
H 1.9681760 0.8396220 -0.8344710
N 0.2667050 2.3423381 0.3969930
H 0.1230610 2.6886320 -0.5494730
H -0.4558260 2.7741151 0.9672210
