18
 comment:c
C 0.2376150 0.9551370 0.4367960
C -1.4925530 0.2639250 -0.1706480
C -1.4416150 -1.2465080 -0.2292940
C 0.1537280 -1.8238111 0.2991380
C 1.1805890 -1.0901160 -0.4668120
C 1.2101220 0.2507430 -0.4082930
H -2.1926630 0.6590620 0.5720250
H -2.1557901 -1.7276220 0.4467080
H 0.2126390 -2.9094360 0.1803200
H 1.7652720 -1.6175900 -1.2179390
H -1.5850550 -1.6480930 -1.2365969
H -1.6469541 0.7552730 -1.1350660
H 0.1697560 -1.5878750 1.3693190
H 0.2009220 0.5709650 1.4598711
H 1.8245670 0.8323920 -1.0951960
N 0.3742690 2.3835869 0.4741540
H 0.4337340 2.7809069 -0.4579540
H -0.4154680 2.8105149 0.9455710
