18
 comment:c
C 0.7386690 0.9932000 0.5110230
C -2.6492200 0.2882950 -0.2745520
C -2.3218930 -0.9851350 -0.4614720
C 1.0309190 -2.0496540 0.4804050
C 1.6354721 -1.1660780 -0.3201580
C 1.3209040 0.2610890 -0.4515620
H -3.6517389 0.5863790 0.0249010
H -3.0464549 -1.7845320 -0.3215610
H 1.3666980 -3.0811300 0.5352770
H 2.4492080 -1.5225700 -0.9529100
H -1.3176690 -1.2776400 -0.7603620
H -1.9222130 1.0852640 -0.4168160
H 0.1841480 -1.7764781 1.1074760
H 0.4930110 0.5384350 1.4689330
H 1.6137050 0.7500110 -1.3809580
N 0.4741230 2.3535850 0.4522670
H 0.4466590 2.7547159 -0.4753920
H -0.2834920 2.6775119 1.0348940
