18
 comment:c
C 0.6433370 1.0558029 0.5033610
C -2.3309109 0.1652160 -0.3383950
C -2.2359011 -1.1566350 -0.4224110
C 0.8361710 -1.9986250 0.4584670
C 1.4217269 -1.1378030 -0.3814850
C 1.2985340 0.3219500 -0.4105450
H -2.8595691 0.6506890 0.4799560
H -2.6780090 -1.8119791 0.3249390
H 1.0155880 -3.0666599 0.3769040
H 2.0711000 -1.5522031 -1.1531709
H -1.7023830 -1.6396400 -1.2360500
H -1.8859770 0.8160340 -1.0866650
H 0.1661520 -1.6792740 1.2535200
H 0.1623350 0.5750200 1.3526330
H 1.7845750 0.8362360 -1.2398360
N 0.5606620 2.4398050 0.5287290
H 0.7753850 2.9011061 -0.3451620
H -0.2689150 2.8160870 0.9636050
