18
 comment:c
C 0.7292460 1.0001590 0.5097360
C -2.6362710 0.2721910 -0.2920060
C -2.3273261 -1.0105270 -0.4436200
C 1.0110480 -2.0449030 0.4682090
C 1.6239780 -1.1607490 -0.3255140
C 1.3336710 0.2726850 -0.4427440
H -3.6171041 0.5905840 0.0547840
H -3.0457239 -1.7979140 -0.2255060
H 1.3309710 -3.0821130 0.5064310
H 2.4288850 -1.5230560 -0.9660870
H -1.3443780 -1.3233089 -0.7889380
H -1.9153529 1.0566840 -0.5127490
H 0.1737260 -1.7679090 1.1061040
H 0.4384480 0.5359740 1.4502970
H 1.6652060 0.7710610 -1.3538990
N 0.4911600 2.3657401 0.4631110
H 0.5125020 2.7819099 -0.4581000
H -0.2879200 2.6923850 1.0152050
