18
 comment:c
C 0.0956310 0.8911590 0.4027950
C -1.2780041 0.3539540 -0.0905730
C -1.2999851 -1.1973979 -0.1686840
C 0.0537390 -1.8190620 0.2366180
C 1.1671000 -1.1014080 -0.4795650
C 1.1794220 0.2276650 -0.4032520
H -2.0670071 0.7190040 0.5795250
H -2.0951240 -1.6051440 0.4657300
H 0.0574730 -2.8939650 0.0301490
H 1.9127120 -1.6586180 -1.0419930
H -1.5247830 -1.5120920 -1.1935281
H -1.4777859 0.7870120 -1.0789840
H 0.1879230 -1.7096180 1.3232490
H 0.2051740 0.5595970 1.4471990
H 1.9352010 0.8488810 -0.8798820
N 0.2929410 2.3366971 0.4236070
H 0.2134810 2.7090559 -0.5202420
H -0.4399710 2.7836361 0.9681130
