18
 comment:c
C 0.6985520 1.0226080 0.5016410
C -2.5876920 0.2223710 -0.3236110
C -2.3285339 -1.0771520 -0.4140720
C 0.9611650 -2.0291879 0.4492030
C 1.5760241 -1.1474410 -0.3462480
C 1.3574790 0.3013730 -0.4192910
H -3.5177641 0.5951690 0.1003520
H -3.0378890 -1.8245630 -0.0649290
H 1.2281510 -3.0816860 0.4292650
H 2.3320789 -1.5285910 -1.0333430
H -1.3954530 -1.4440060 -0.8350450
H -1.8764340 0.9657930 -0.6770040
H 0.1763210 -1.7401190 1.1454450
H 0.2851570 0.5407970 1.3856260
H 1.7897350 0.8184040 -1.2760870
N 0.5369580 2.3995161 0.4921880
H 0.6868660 2.8499291 -0.4005180
H -0.2849510 2.7459209 0.9645790
