18
 comment:c
C 0.1415110 0.9246770 0.4083450
C -1.3859251 0.2999240 -0.1328320
C -1.3560129 -1.2564360 -0.1989410
C 0.0801820 -1.8033600 0.2731900
C 1.1702590 -1.0867850 -0.4759290
C 1.1977390 0.2452980 -0.4128580
H -2.1541340 0.6536680 0.5664460
H -2.1278551 -1.6961941 0.4439050
H 0.1456380 -2.8887999 0.1464530
H 1.8262460 -1.6395530 -1.1451230
H -1.5456920 -1.6144480 -1.2170670
H -1.6004610 0.7430460 -1.1126820
H 0.1687250 -1.6055750 1.3506260
H 0.2029180 0.5669690 1.4451350
H 1.8787880 0.8471030 -1.0132639
N 0.3623010 2.3690701 0.4659470
H 0.3905020 2.7635050 -0.4710220
H -0.4058320 2.8243680 0.9506440
