18
 comment:c
C 0.3659930 0.9886660 0.4634480
C -1.6170141 0.2120340 -0.2130270
C -1.5755060 -1.1965370 -0.2727210
C 0.2888950 -1.8620760 0.3325320
C 1.1795310 -1.1107260 -0.4512650
C 1.2098171 0.2698090 -0.3964340
H -2.1489370 0.6864120 0.6098600
H -2.1279850 -1.7595700 0.4775600
H 0.2762260 -2.9433169 0.2018330
H 1.6927830 -1.6032490 -1.2756790
H -1.5696290 -1.6707240 -1.2507200
H -1.6038760 0.7860860 -1.1354120
H 0.1152620 -1.5578700 1.3628989
H 0.1260770 0.5596510 1.4313689
H 1.7575090 0.8245190 -1.1586270
N 0.3740440 2.3907199 0.4771720
H 0.4771420 2.8033531 -0.4417400
H -0.4260610 2.7917061 0.9481990
