18
 comment:c
C 0.6225420 1.0564801 0.5105610
C -2.2040529 0.1695400 -0.3367770
C -2.1542740 -1.1547880 -0.4173670
C 0.7850280 -1.9963560 0.4632460
C 1.3580149 -1.1424440 -0.3928660
C 1.2550290 0.3176400 -0.4156400
H -2.6178880 0.6751680 0.5340270
H -2.5191071 -1.7934090 0.3840760
H 0.9402100 -3.0673051 0.3706690
H 1.9696710 -1.5659450 -1.1899910
H -1.7370390 -1.6582810 -1.2845510
H -1.8370870 0.8040350 -1.1390700
H 0.1543790 -1.6679760 1.2860169
H 0.1708450 0.5802970 1.3781260
H 1.7169480 0.8270220 -1.2615510
N 0.5296870 2.4399281 0.5257040
H 0.7054450 2.8941171 -0.3604300
H -0.2849460 2.8139999 0.9896140
