18
 comment:c
C 0.1138360 0.9026180 0.4309490
C -1.2530570 0.3628200 -0.0492050
C -1.3148590 -1.1800030 -0.1445510
C 0.0367900 -1.8600280 0.1587100
C 1.1764430 -1.1061389 -0.4753490
C 1.2142220 0.2180970 -0.3380910
H -2.0393989 0.7445750 0.6145580
H -2.0758181 -1.5778170 0.5361820
H 0.0115800 -2.9041979 -0.1699800
H 1.9519850 -1.6464109 -1.0140550
H -1.6247129 -1.4667830 -1.1553000
H -1.4396260 0.8030190 -1.0374080
H 0.1885970 -1.8845470 1.2483530
H 0.2289410 0.6391060 1.4940590
H 2.0155220 0.8327550 -0.7435970
N 0.2512740 2.3543410 0.3513510
H 0.0732700 2.6550510 -0.6050000
H -0.4646010 2.7967601 0.9219390
