18
 comment:c
C 0.6545180 1.0517271 0.4957430
C -2.4162829 0.1690650 -0.3339330
C -2.2775619 -1.1493191 -0.4161380
C 0.8657980 -2.0033901 0.4478490
C 1.4680589 -1.1365730 -0.3736620
C 1.3324440 0.3228980 -0.4055040
H -3.1022639 0.6301550 0.3740090
H -2.8414190 -1.8242710 0.2242110
H 1.0595430 -3.0693960 0.3728540
H 2.1466601 -1.5436161 -1.1238050
H -1.5862650 -1.6068150 -1.1182070
H -1.8494160 0.8389060 -0.9756480
H 0.1644070 -1.6913429 1.2186260
H 0.1526680 0.5669970 1.3306770
H 1.8368590 0.8416360 -1.2209210
N 0.5700140 2.4352939 0.5247800
H 0.8116130 2.9020050 -0.3391520
H -0.2706340 2.8101830 0.9390730
