18
 comment:c
C 0.1796690 0.9375870 0.4204500
C -1.4308890 0.2851210 -0.1487060
C -1.3880210 -1.2567760 -0.2105330
C 0.1052530 -1.8097579 0.2833200
C 1.1753640 -1.0871930 -0.4725120
C 1.2046580 0.2473310 -0.4115350
H -2.1775031 0.6521790 0.5656470
H -2.1420410 -1.7107220 0.4430040
H 0.1736410 -2.8955231 0.1622780
H 1.8009191 -1.6301121 -1.1781440
H -1.5642880 -1.6313450 -1.2247150
H -1.6273100 0.7452350 -1.1234800
H 0.1711610 -1.5975190 1.3587230
H 0.2077800 0.5704060 1.4535130
H 1.8575890 0.8406600 -1.0508250
N 0.3693920 2.3765149 0.4703830
H 0.4102440 2.7709961 -0.4652840
H -0.4094070 2.8198450 0.9475440
