18
 comment:c
C 0.7177250 1.0087050 0.5076130
C -2.6209810 0.2525370 -0.3076030
C -2.3301740 -1.0375680 -0.4299060
C 0.9925410 -2.0390990 0.4595000
C 1.6071180 -1.1552041 -0.3334740
C 1.3447920 0.2848410 -0.4330570
H -3.5826371 0.5920610 0.0713970
H -3.0446451 -1.8101780 -0.1537900
H 1.2929380 -3.0826659 0.4748660
H 2.3942990 -1.5248539 -0.9914770
H -1.3662241 -1.3715661 -0.8070140
H -1.9042929 1.0219361 -0.5870590
H 0.1741770 -1.7575520 1.1194980
H 0.3771620 0.5360940 1.4269969
H 1.7173840 0.7921430 -1.3231360
N 0.5100970 2.3794100 0.4752600
H 0.5836580 2.8107269 -0.4362100
H -0.2879520 2.7125809 0.9955010
