19
 comment:c
C -1.2092540 -0.6564210 -0.6645660
C -1.2092540 -0.6564210 0.6645650
C 1.8827840 -0.6428560 1.5260580
C 2.0376079 -1.7091620 0.7368250
C 2.0376101 -1.7091620 -0.7368210
C 1.8827860 -0.6428570 -1.5260550
H 1.7699870 0.3644710 1.1291760
H 2.1673830 -2.6840639 1.2054780
H 2.1673870 -2.6840651 -1.2054729
H 1.7699860 0.3644700 -1.1291740
H 1.8874230 -0.7339860 2.6081800
H 1.8874280 -0.7339880 -2.6081760
H -1.2845820 -1.4805850 1.3610320
H -1.2845809 -1.4805861 -1.3610330
C -1.0684980 0.7545010 -1.1257170
O -1.0290530 1.1986181 -2.2326119
C -1.0684990 0.7545020 1.1257150
O -1.0290540 1.1986190 2.2326100
O -0.9787890 1.5561310 -0.0000010
