19
 comment:c
C -1.1633530 -0.6578270 -0.6646670
C -1.1633530 -0.6578260 0.6646650
C 1.8566000 -0.6465010 1.5252080
C 2.0260761 -1.7111900 0.7364470
C 2.0260780 -1.7111900 -0.7364430
C 1.8566020 -0.6465020 -1.5252050
H 1.7368580 0.3597350 1.1278020
H 2.1645999 -2.6846399 1.2055700
H 2.1646030 -2.6846409 -1.2055650
H 1.7368580 0.3597340 -1.1278000
H 1.8587800 -0.7369900 2.6074159
H 1.8587850 -0.7369920 -2.6074131
H -1.2207670 -1.4833510 1.3609930
H -1.2207659 -1.4833519 -1.3609940
C -1.0600860 0.7560680 -1.1257679
O -1.0378410 1.2017560 -2.2325859
C -1.0600860 0.7560690 1.1257660
O -1.0378420 1.2017570 2.2325840
O -0.9860230 1.5595230 -0.0000010
