19
 comment:c
C -0.6571700 -0.6451600 -0.6967510
C -0.6571700 -0.6451600 0.6967510
C 1.4384270 -0.6446300 1.4226910
C 1.9505860 -1.7081670 0.6998000
C 1.9505880 -1.7081670 -0.6997960
C 1.4384310 -0.6446310 -1.4226890
H 1.5367171 0.3693290 1.0446841
H 2.1550059 -2.6442750 1.2158790
H 2.1550090 -2.6442759 -1.2158740
H 1.5367190 0.3693290 -1.0446841
H 1.3303320 -0.7118390 2.5021019
H 1.3303380 -0.7118410 -2.5021009
H -0.9371320 -1.4712350 1.3361150
H -0.9371300 -1.4712360 -1.3361160
C -0.9483470 0.7466630 -1.1313260
O -1.1005480 1.1946950 -2.2290089
C -0.9483470 0.7466630 1.1313241
O -1.1005480 1.1946959 2.2290070
O -0.9897780 1.5504150 -0.0000010
