19
 comment:c
C -0.5180750 -0.6388590 -0.7425520
C -0.5180750 -0.6388590 0.7425510
C 1.3009440 -0.6347330 1.3845710
C 1.9506910 -1.7248160 0.6747670
C 1.9506921 -1.7248160 -0.6747630
C 1.3009470 -0.6347340 -1.3845690
H 1.6011220 0.3700780 1.0777900
H 2.2381589 -2.6188681 1.2234640
H 2.2381620 -2.6188691 -1.2234581
H 1.6011250 0.3700770 -1.0777889
H 1.2571510 -0.7109080 2.4710381
H 1.2571560 -0.7109110 -2.4710360
H -0.9934610 -1.4456000 1.2963730
H -0.9934590 -1.4456010 -1.2963740
C -0.9402140 0.7455090 -1.1358320
O -1.1055090 1.1969560 -2.2292230
C -0.9402150 0.7455100 1.1358300
O -1.1055100 1.1969570 2.2292211
O -0.9969080 1.5416580 -0.0000010
