19
 comment:c
C -1.1408300 -0.6585350 -0.6647270
C -1.1408300 -0.6585350 0.6647250
C 1.8425781 -0.6475020 1.5246670
C 2.0196099 -1.7113600 0.7362340
C 2.0196121 -1.7113600 -0.7362300
C 1.8425800 -0.6475030 -1.5246640
H 1.7194970 0.3581640 1.1269521
H 2.1622300 -2.6840611 1.2056510
H 2.1622331 -2.6840611 -1.2056460
H 1.7194980 0.3581630 -1.1269500
H 1.8430450 -0.7376480 2.6069210
H 1.8430490 -0.7376500 -2.6069181
H -1.1906730 -1.4845020 1.3609800
H -1.1906720 -1.4845020 -1.3609810
C -1.0550750 0.7563550 -1.1257910
O -1.0421830 1.2026320 -2.2325571
C -1.0550760 0.7563560 1.1257890
O -1.0421840 1.2026330 2.2325549
O -0.9872340 1.5605119 -0.0000010
