19
 comment:c
C -1.3623060 -0.6637000 -0.6644130
C -1.3623060 -0.6637000 0.6644120
C 1.9110670 -0.5852310 1.5269459
C 2.0269330 -1.6558000 0.7375420
C 2.0269361 -1.6558000 -0.7375380
C 1.9110690 -0.5852330 -1.5269430
H 1.8248320 0.4249770 1.1306760
H 2.1268940 -2.6345410 1.2055590
H 2.1269031 -2.6345410 -1.2055540
H 1.8248280 0.4249750 -1.1306731
H 1.9151820 -0.6774140 2.6089239
H 1.9151880 -0.6774150 -2.6089201
H -1.5311880 -1.4741100 1.3611079
H -1.5311880 -1.4741110 -1.3611090
C -1.0593890 0.7218660 -1.1257170
O -0.9725420 1.1589230 -2.2325449
C -1.0593890 0.7218660 1.1257150
O -0.9725420 1.1589240 2.2325420
O -0.8764800 1.5070699 -0.0000010
