19
 comment:c
C -0.3751890 -0.6225460 -0.7709880
C -0.3751900 -0.6225450 0.7709880
C 1.1682090 -0.6398630 1.3490731
C 1.9362900 -1.7338860 0.6670340
C 1.9362910 -1.7338860 -0.6670300
C 1.1682121 -0.6398640 -1.3490710
H 1.6009560 0.3414310 1.1107320
H 2.3565340 -2.5522411 1.2464890
H 2.3565371 -2.5522420 -1.2464840
H 1.6009580 0.3414300 -1.1107310
H 1.1530180 -0.7279110 2.4377511
H 1.1530230 -0.7279130 -2.4377489
H -0.9549430 -1.4195310 1.2432140
H -0.9549410 -1.4195319 -1.2432150
C -0.9184700 0.7467600 -1.1389300
O -1.1129839 1.1973540 -2.2271669
C -0.9184700 0.7467610 1.1389281
O -1.1129839 1.1973560 2.2271650
O -1.0148360 1.5298851 -0.0000010
