19
 comment:c
C -1.2558089 -0.6557380 -0.6644970
C -1.2558089 -0.6557370 0.6644950
C 1.9025760 -0.6355200 1.5265340
C 2.0462079 -1.7030510 0.7371150
C 2.0462101 -1.7030510 -0.7371110
C 1.9025780 -0.6355220 -1.5265310
H 1.7956780 0.3726280 1.1299829
H 2.1687131 -2.6790409 1.2054840
H 2.1687169 -2.6790421 -1.2054790
H 1.7956769 0.3726260 -1.1299810
H 1.9084671 -0.7270990 2.6085939
H 1.9084719 -0.7271010 -2.6085911
H -1.3534700 -1.4776070 1.3611020
H -1.3534700 -1.4776070 -1.3611031
C -1.0732120 0.7505850 -1.1256810
O -1.0189370 1.1928920 -2.2326040
C -1.0732130 0.7505860 1.1256790
O -1.0189379 1.1928930 2.2326019
O -0.9620690 1.5493540 -0.0000010
