19
 comment:c
C -1.3173560 -0.6581770 -0.6644490
C -1.3173560 -0.6581770 0.6644470
C 1.9120090 -0.6143000 1.5267450
C 2.0463910 -1.6828640 0.7373810
C 2.0463929 -1.6828650 -0.7373770
C 1.9120110 -0.6143010 -1.5267420
H 1.8103000 0.3944260 1.1302530
H 2.1624320 -2.6597400 1.2055629
H 2.1624379 -2.6597409 -1.2055579
H 1.8102990 0.3944250 -1.1302510
H 1.9180900 -0.7060810 2.6087661
H 1.9180950 -0.7060830 -2.6087630
H -1.4527240 -1.4747720 1.3611460
H -1.4527230 -1.4747730 -1.3611470
C -1.0701410 0.7383870 -1.1256830
O -0.9976350 1.1779910 -2.2325680
C -1.0701410 0.7383880 1.1256810
O -0.9976360 1.1779920 2.2325661
O -0.9211170 1.5308030 -0.0000010
