19
 comment:c
C -1.0746740 -0.6602590 -0.6649400
C -1.0746750 -0.6602590 0.6649380
C 1.7978580 -0.6486460 1.5220940
C 2.0002620 -1.7098310 0.7354120
C 2.0002630 -1.7098310 -0.7354080
C 1.7978600 -0.6486480 -1.5220920
H 1.6696759 0.3556090 1.1230590
H 2.1529839 -2.6803010 1.2061350
H 2.1529870 -2.6803019 -1.2061300
H 1.6696759 0.3556080 -1.1230570
H 1.7886140 -0.7376800 2.6044450
H 1.7886180 -0.7376820 -2.6044419
H -1.1071290 -1.4868990 1.3609190
H -1.1071280 -1.4869000 -1.3609200
C -1.0385150 0.7560930 -1.1258250
O -1.0547340 1.2031410 -2.2323511
C -1.0385150 0.7560940 1.1258230
O -1.0547349 1.2031420 2.2323489
O -0.9863370 1.5620530 -0.0000010
