19
 comment:c
C -0.9267200 -0.6590950 -0.6663140
C -0.9267210 -0.6590940 0.6663130
C 1.6803370 -0.6481620 1.5014280
C 1.9682530 -1.7047280 0.7316140
C 1.9682540 -1.7047280 -0.7316100
C 1.6803401 -0.6481630 -1.5014260
H 1.5555060 0.3505310 1.0908180
H 2.1408610 -2.6668420 1.2118310
H 2.1408639 -2.6668429 -1.2118260
H 1.5555080 0.3505300 -1.0908160
H 1.6247110 -0.7264880 2.5832701
H 1.6247160 -0.7264900 -2.5832679
H -0.9537480 -1.4862890 1.3601710
H -0.9537470 -1.4862890 -1.3601720
C -0.9981210 0.7538140 -1.1260530
O -1.0780030 1.1981330 -2.2312210
C -0.9981220 0.7538150 1.1260509
O -1.0780030 1.1981339 2.2312191
O -0.9808050 1.5628120 -0.0000010
