19
 comment:c
C -1.3486910 -0.6617120 -0.6644270
C -1.3486910 -0.6617120 0.6644260
C 1.9115170 -0.5953050 1.5268070
C 2.0349231 -1.6651340 0.7374930
C 2.0349250 -1.6651340 -0.7374880
C 1.9115180 -0.5953060 -1.5268030
H 1.8189840 0.4142940 1.1303591
H 2.1414471 -2.6431360 1.2055960
H 2.1414540 -2.6431370 -1.2055910
H 1.8189811 0.4142920 -1.1303560
H 1.9163990 -0.6872480 2.6088071
H 1.9164040 -0.6872500 -2.6088040
H -1.5069391 -1.4742390 1.3611280
H -1.5069380 -1.4742399 -1.3611290
C -1.0633460 0.7275790 -1.1257041
O -0.9809150 1.1654650 -2.2325511
C -1.0633460 0.7275800 1.1257010
O -0.9809150 1.1654660 2.2325480
O -0.8911950 1.5152349 -0.0000010
