19
 comment:c
C -0.2739380 -0.5612730 -0.7662230
C -0.2739390 -0.5612720 0.7662230
C 1.1303890 -0.6966920 1.3939559
C 1.9226440 -1.7510140 0.6659770
C 1.9226450 -1.7510140 -0.6659740
C 1.1303910 -0.6966930 -1.3939540
H 1.6523910 0.2682460 1.3138430
H 2.4890611 -2.4821069 1.2372510
H 2.4890630 -2.4821081 -1.2372470
H 1.6523920 0.2682460 -1.3138410
H 1.0329970 -0.9052540 2.4620380
H 1.0330009 -0.9052550 -2.4620359
H -0.9148490 -1.3527080 1.1663930
H -0.9148480 -1.3527091 -1.1663940
C -0.8874250 0.7731420 -1.1394870
O -1.1173680 1.2033989 -2.2285459
C -0.8874260 0.7731430 1.1394850
O -1.1173700 1.2034010 2.2285440
O -1.1404589 1.5115530 -0.0000010
