19
 comment:c
C -0.3954480 -0.6261600 -0.7689400
C -0.3954480 -0.6261590 0.7689400
C 1.1859220 -0.6378120 1.3533080
C 1.9398730 -1.7331589 0.6675570
C 1.9398741 -1.7331600 -0.6675530
C 1.1859241 -0.6378130 -1.3533061
H 1.6038409 0.3467560 1.1050950
H 2.3368111 -2.5661950 1.2426480
H 2.3368139 -2.5661960 -1.2426420
H 1.6038430 0.3467550 -1.1050940
H 1.1714350 -0.7232370 2.4420929
H 1.1714400 -0.7232390 -2.4420910
H -0.9655940 -1.4228480 1.2524370
H -0.9655920 -1.4228491 -1.2524379
C -0.9232820 0.7464430 -1.1385630
O -1.1115690 1.1975580 -2.2277210
C -0.9232830 0.7464440 1.1385610
O -1.1115700 1.1975590 2.2277191
O -1.0108560 1.5321240 -0.0000010
