19
 comment:c
C -1.1861440 -0.6570890 -0.6646120
C -1.1861440 -0.6570880 0.6646110
C 1.8702130 -0.6450230 1.5257050
C 2.0320480 -1.7105360 0.7366470
C 2.0320499 -1.7105370 -0.7366430
C 1.8702151 -0.6450240 -1.5257020
H 1.7539730 0.3617930 1.1286200
H 2.1661241 -2.6847520 1.2054991
H 2.1661279 -2.6847520 -1.2054940
H 1.7539730 0.3617920 -1.1286180
H 1.8737561 -0.7358810 2.6078660
H 1.8737611 -0.7358830 -2.6078629
H -1.2518270 -1.4820380 1.3610150
H -1.2518260 -1.4820380 -1.3610160
C -1.0646290 0.7555000 -1.1257410
O -1.0335040 1.2004470 -2.2326040
C -1.0646300 0.7555010 1.1257390
O -1.0335060 1.2004480 2.2326019
O -0.9833900 1.5581360 -0.0000010
