19
 comment:c
C -0.8016790 -0.6528470 -0.6712140
C -0.8016800 -0.6528460 0.6712130
C 1.5725210 -0.6480840 1.4673040
C 1.9541260 -1.7025310 0.7235470
C 1.9541270 -1.7025310 -0.7235430
C 1.5725240 -0.6480850 -1.4673010
H 1.5035160 0.3522200 1.0506620
H 2.1288199 -2.6571569 1.2168970
H 2.1288230 -2.6571579 -1.2168920
H 1.5035180 0.3522200 -1.0506610
H 1.4606130 -0.7158200 2.5455060
H 1.4606180 -0.7158230 -2.5455041
H -0.8917260 -1.4825370 1.3556590
H -0.8917240 -1.4825380 -1.3556590
C -0.9670150 0.7509920 -1.1273630
O -1.0917810 1.1941290 -2.2294681
C -0.9670160 0.7509930 1.1273611
O -1.0917810 1.1941310 2.2294660
O -0.9836390 1.5590150 -0.0000010
