19
 comment:c
C -1.1185360 -0.6592000 -0.6647910
C -1.1185369 -0.6592000 0.6647900
C 1.8282030 -0.6480990 1.5240360
C 2.0128701 -1.7111200 0.7359980
C 2.0128710 -1.7111210 -0.7359940
C 1.8282050 -0.6481000 -1.5240330
H 1.7027050 0.3570920 1.1260210
H 2.1589401 -2.6831291 1.2057509
H 2.1589429 -2.6831291 -1.2057461
H 1.7027050 0.3570910 -1.1260190
H 1.8262590 -0.7379600 2.6063280
H 1.8262640 -0.7379620 -2.6063261
H -1.1616490 -1.4854810 1.3609700
H -1.1616480 -1.4854820 -1.3609710
C -1.0497130 0.7564050 -1.1258050
O -1.0464890 1.2031090 -2.2325079
C -1.0497140 0.7564050 1.1258039
O -1.0464900 1.2031100 2.2325060
O -0.9874460 1.5612000 -0.0000010
