19
 comment:c
C -1.0964400 -0.6597880 -0.6648630
C -1.0964400 -0.6597870 0.6648620
C 1.8133570 -0.6484410 1.5232199
C 2.0063009 -1.7105790 0.7357250
C 2.0063021 -1.7105790 -0.7357210
C 1.8133590 -0.6484420 -1.5232170
H 1.6862860 0.3563170 1.1248170
H 2.1555600 -2.6818810 1.2058930
H 2.1555631 -2.6818810 -1.2058880
H 1.6862860 0.3563160 -1.1248150
H 1.8081580 -0.7379850 2.6055429
H 1.8081630 -0.7379870 -2.6055400
H -1.1340930 -1.4862829 1.3609360
H -1.1340920 -1.4862840 -1.3609370
C -1.0441400 0.7562970 -1.1258180
O -1.0507220 1.2032590 -2.2324400
C -1.0441400 0.7562970 1.1258160
O -1.0507230 1.2032610 2.2324381
O -0.9870640 1.5616870 -0.0000010
