19
 comment:c
C -0.8643260 -0.6564220 -0.6679270
C -0.8643270 -0.6564220 0.6679260
C 1.6271880 -0.6478800 1.4857301
C 1.9598060 -1.7034010 0.7284750
C 1.9598070 -1.7034010 -0.7284710
C 1.6271909 -0.6478810 -1.4857280
H 1.5221480 0.3502730 1.0701030
H 2.1338351 -2.6618340 1.2150710
H 2.1338379 -2.6618350 -1.2150660
H 1.5221490 0.3502730 -1.0701020
H 1.5418611 -0.7202460 2.5660551
H 1.5418670 -0.7202480 -2.5660529
H -0.9116290 -1.4845949 1.3588080
H -0.9116280 -1.4845960 -1.3588090
C -0.9816060 0.7525570 -1.1264760
O -1.0855800 1.1956590 -2.2303641
C -0.9816070 0.7525580 1.1264740
O -1.0855809 1.1956600 2.2303619
O -0.9814050 1.5616230 -0.0000010
