19
 comment:c
C 0.0000000 0.0000000 0.0000000
C 0.0000000 0.0000000 1.3820200
C 2.1350961 0.0000000 2.1196220
C 2.6276209 -1.0602500 1.3951660
C 2.6276219 -1.0602500 -0.0131410
C 2.1350999 -0.0000010 -0.7376000
H 2.2027900 1.0128020 1.7332420
H 2.8251629 -2.0000980 1.9073290
H 2.8251660 -2.0000980 -0.5253040
H 2.2027910 1.0128011 -0.3512210
H 2.0202489 -0.0662050 3.1981740
H 2.0202560 -0.0662080 -1.8161520
H -0.2482730 -0.8276570 2.0313420
H -0.2482720 -0.8276590 -0.6493230
C -0.2725240 1.3932490 -0.4395840
O -0.4225130 1.8403510 -1.5379330
C -0.2725240 1.3932500 1.8216020
O -0.4225140 1.8403521 2.9199519
O -0.3118400 2.1977179 0.6910090
