19
 comment:c
C -0.6975260 -0.6469350 -0.6859140
C -0.6975270 -0.6469340 0.6859130
C 1.4773210 -0.6469750 1.4346761
C 1.9504590 -1.7046880 0.7084220
C 1.9504610 -1.7046880 -0.7084180
C 1.4773240 -0.6469760 -1.4346740
H 1.5172350 0.3639480 1.0402900
H 2.1405399 -2.6484120 1.2162880
H 2.1405430 -2.6484129 -1.2162830
H 1.5172360 0.3639470 -1.0402890
H 1.3571520 -0.7129980 2.5124550
H 1.3571579 -0.7130000 -2.5124531
H -0.9150150 -1.4760500 1.3435570
H -0.9150130 -1.4760510 -1.3435570
C -0.9514220 0.7477430 -1.1300240
O -1.0987830 1.1941200 -2.2288949
C -0.9514220 0.7477440 1.1300220
O -1.0987830 1.1941210 2.2288930
O -0.9881970 1.5528600 -0.0000010
