19
 comment:c
C 1.4205509 0.9449050 0.0628430
C -0.7807160 0.1523570 -0.7208660
C -0.7192270 -1.2086930 -0.7921000
C 1.1868900 -1.9253170 0.0836440
C 2.0951071 -1.2701761 -0.6939640
C 2.1929419 0.1514590 -0.7206410
H 1.0756510 -3.0038750 0.0035840
H 2.6207349 -1.8275210 -1.4677370
H -0.5340770 -1.6899160 -1.7458290
H -0.6152260 0.7747470 -1.5912970
H 0.8040080 -1.4887090 1.0007631
H 0.9831070 0.5773020 0.9848610
H 2.7708969 0.6033130 -1.5249660
H 1.3913150 2.0222261 -0.0757970
H -1.2157420 -1.8133900 -0.0399640
C -1.4151000 0.8469790 0.4077750
O -1.8205990 1.9879090 0.3994280
O -1.5016130 0.0728560 1.5243020
H -1.9492450 0.6267250 2.1839600
