19
 comment:c
C 1.6812880 1.0128870 0.1488330
C -1.1237420 0.1341730 -0.8418660
C -1.0920269 -1.1923180 -0.9394680
C 1.5051920 -2.0273170 0.2216380
C 2.1879461 -1.2985830 -0.6656000
C 2.2478409 0.1703830 -0.7184760
H 1.5123720 -3.1131780 0.1799230
H 2.7457740 -1.8198529 -1.4430110
H -0.8252870 -1.6826510 -1.8706220
H -0.9010150 0.7845340 -1.6813160
H 0.9280510 -1.5743970 1.0246370
H 1.1353050 0.6630420 1.0222050
H 2.7969699 0.5879750 -1.5616890
H 1.7573330 2.0889709 0.0227910
H -1.3462330 -1.8301530 -0.0981470
C -1.5077209 0.8519970 0.3919460
O -1.7975060 2.0248990 0.4419720
O -1.5053940 0.0682290 1.4984540
H -1.8059310 0.6427490 2.2212570
