19
 comment:c
C 1.5121090 0.9779940 0.0951410
C -0.8855130 0.1417230 -0.7617650
C -0.8470510 -1.1918041 -0.8488920
C 1.3061420 -1.9733690 0.1386460
C 2.1064961 -1.2859930 -0.6903630
C 2.1982620 0.1658060 -0.7203250
H 1.2023000 -3.0520411 0.0561730
H 2.6314640 -1.8257591 -1.4773260
H -0.5562430 -1.6860861 -1.7687629
H -0.6318190 0.7850700 -1.5955030
H 0.8122400 -1.5094590 0.9867120
H 0.9874960 0.6043350 0.9687580
H 2.7712109 0.6024320 -1.5369610
H 1.5192360 2.0565500 -0.0343340
H -1.2295420 -1.8211240 -0.0518040
C -1.4386081 0.8460170 0.4060530
O -1.8159100 1.9950340 0.4063130
O -1.5007890 0.0738190 1.5225440
H -1.9217860 0.6312680 2.1968579
