19
 comment:c
C 1.7583840 1.0782800 0.1702800
C -1.3974040 0.1313060 -0.9456040
C -1.4344290 -1.1890290 -1.1004380
C 1.5785590 -1.9635140 0.3328990
C 2.3415749 -1.2486579 -0.4958280
C 2.1986351 0.1987870 -0.7305690
H 1.7472920 -3.0268919 0.4803260
H 3.1241350 -1.7529030 -1.0631810
H -1.3719380 -1.6420300 -2.0855551
H -1.3133020 0.8143740 -1.7851390
H 0.7579840 -1.5095760 0.8857710
H 1.5020781 0.7720210 1.1826650
H 2.4897721 0.5566720 -1.7184030
H 1.6435210 2.1319830 -0.0668070
H -1.5268790 -1.8575680 -0.2496190
C -1.4812450 0.8061310 0.3695070
O -1.5646321 2.0032041 0.5197170
O -1.4570251 -0.0474870 1.4199350
H -1.5336080 0.5118940 2.2097299
