19
 comment:c
C 1.3046080 0.9123840 0.0320150
C -0.6655740 0.1893500 -0.6772340
C -0.5752860 -1.2623820 -0.7294500
C 1.0403390 -1.8772910 0.0277730
C 2.0990610 -1.2413050 -0.7075610
C 2.1978979 0.1209090 -0.7317290
H 1.0174550 -2.9672179 -0.0166060
H 2.6638391 -1.8299249 -1.4282210
H -0.5634630 -1.6794220 -1.7361170
H -0.6803740 0.7540650 -1.6036150
H 0.8673610 -1.5169210 1.0434639
H 1.0553890 0.5916780 1.0406950
H 2.8204069 0.6022550 -1.4836030
H 1.3043180 1.9923739 -0.1018600
H -1.2786870 -1.7846830 -0.0807820
C -1.4053420 0.8507580 0.4092200
O -1.8254830 1.9871590 0.3979910
O -1.5029340 0.0725040 1.5231730
H -1.9580131 0.6253830 2.1785071
