19
 comment:c
C 1.1822490 0.8781280 -0.0072970
C -0.5427590 0.2287200 -0.6310490
C -0.4736460 -1.2953449 -0.6813750
C 0.9393770 -1.8480260 -0.0130870
C 2.0956681 -1.2306700 -0.7211520
C 2.1959181 0.1053550 -0.7422610
H 0.9647790 -2.9413390 -0.0472380
H 2.7226441 -1.8472019 -1.3621720
H -0.5341530 -1.6576819 -1.7122900
H -0.6955800 0.7289810 -1.5872890
H 0.8932500 -1.5488340 1.0413140
H 1.1054519 0.6225950 1.0531970
H 2.8896749 0.6128170 -1.4093831
H 1.2157249 1.9609210 -0.1397100
H -1.2907940 -1.7485360 -0.1115890
C -1.3952280 0.8555840 0.4170120
O -1.8303150 1.9847291 0.3955420
O -1.5057451 0.0731530 1.5216630
H -1.9714170 0.6183690 2.1765709
