19
 comment:c
C 1.7606710 1.0249079 0.1670000
C -1.3136030 0.1323620 -0.8969350
C -1.2982000 -1.1930420 -1.0076360
C 1.5806760 -2.0156660 0.2560310
C 2.3227940 -1.2905329 -0.5836630
C 2.2717509 0.1749770 -0.7256260
H 1.6895890 -3.0952229 0.3141020
H 3.0253279 -1.8058970 -1.2382790
H -1.1424090 -1.6760319 -1.9677390
H -1.1851650 0.7893760 -1.7513680
H 0.8444420 -1.5593880 0.9146770
H 1.3515300 0.6822910 1.1154890
H 2.6985049 0.5772670 -1.6441580
H 1.7371230 2.0952139 -0.0162170
H -1.4443270 -1.8361419 -0.1449350
C -1.5307140 0.8451510 0.3819250
O -1.7235600 2.0350690 0.4783940
O -1.4941900 0.0354800 1.4669780
H -1.6736740 0.6131990 2.2263670
