19
 comment:c
C 1.3399340 0.9213430 0.0409010
C -0.6996990 0.1767830 -0.6897640
C -0.6144870 -1.2458020 -0.7468980
C 1.0811830 -1.8896620 0.0425830
C 2.0976009 -1.2487220 -0.7028280
C 2.1961119 0.1293140 -0.7277040
H 1.0309440 -2.9767711 -0.0115860
H 2.6471100 -1.8277659 -1.4430270
H -0.5588980 -1.6842130 -1.7406560
H -0.6606260 0.7614490 -1.6015960
H 0.8487750 -1.5059730 1.0351501
H 1.0308090 0.5837520 1.0257630
H 2.8012609 0.6014850 -1.4994700
H 1.3270050 2.0002890 -0.0949390
H -1.2615730 -1.7957890 -0.0665150
C -1.4073800 0.8494570 0.4080860
O -1.8241270 1.9872960 0.3983420
O -1.5024920 0.0724660 1.5236700
H -1.9560421 0.6261290 2.1793060
