19
 comment:c
C 1.7524040 1.0942370 0.1702550
C -1.4095401 0.1305700 -0.9559770
C -1.4551600 -1.1882150 -1.1210901
C 1.5742990 -1.9493270 0.3561000
C 2.3310659 -1.2377840 -0.4810330
C 2.1780620 0.2064470 -0.7293280
H 1.7500850 -3.0102019 0.5132160
H 3.1154549 -1.7424670 -1.0455620
H -1.4119020 -1.6331680 -2.1109231
H -1.3358999 0.8203630 -1.7910020
H 0.7515960 -1.4954979 0.9058130
H 1.5173620 0.7981120 1.1907550
H 2.4486401 0.5542010 -1.7266350
H 1.6283200 2.1447730 -0.0758900
H -1.5346479 -1.8634599 -0.2742670
C -1.4659270 0.7948960 0.3659210
O -1.5251991 1.9919400 0.5275430
O -1.4464869 -0.0681850 1.4086750
H -1.5020670 0.4858210 2.2039859
