19
 comment:c
C 1.2667921 0.9024980 0.0214930
C -0.6284750 0.2022370 -0.6636520
C -0.5379710 -1.2771010 -0.7122760
C 1.0019211 -1.8657850 0.0132390
C 2.0993431 -1.2358930 -0.7122970
C 2.1988890 0.1141470 -0.7356850
H 1.0020280 -2.9576070 -0.0239880
H 2.6825781 -1.8340230 -1.4098361
H -0.5603490 -1.6736600 -1.7292070
H -0.6948930 0.7454660 -1.6022940
H 0.8810610 -1.5281130 1.0465270
H 1.0777820 0.6013740 1.0509590
H 2.8424349 0.6043810 -1.4635640
H 1.2792350 1.9835300 -0.1109150
H -1.2893580 -1.7726680 -0.0939010
C -1.4029970 0.8522050 0.4111200
O -1.8269240 1.9867690 0.3974730
O -1.5035720 0.0726600 1.5226250
H -1.9607100 0.6239690 2.1780181
