19
 comment:c
C 1.7524430 1.0199510 0.1648320
C -1.2846180 0.1321920 -0.8868350
C -1.2570200 -1.1936830 -0.9901440
C 1.5727140 -2.0214870 0.2478450
C 2.2987859 -1.2955290 -0.6053790
C 2.2782929 0.1728970 -0.7222000
H 1.6589890 -3.1042089 0.2788370
H 2.9664221 -1.8143700 -1.2927810
H -1.0788220 -1.6805460 -1.9443370
H -1.1442790 0.7856960 -1.7420340
H 0.8726190 -1.5649110 0.9445280
H 1.3013901 0.6739300 1.0927939
H 2.7414999 0.5813920 -1.6199470
H 1.7594970 2.0930209 -0.0027900
H -1.4168370 -1.8334171 -0.1273950
C -1.5333520 0.8491690 0.3836100
O -1.7465130 2.0363691 0.4701310
O -1.5002110 0.0465850 1.4743980
H -1.7029790 0.6256320 2.2268951
