19
 comment:c
C 1.7645040 1.0323960 0.1686550
C -1.3392830 0.1327330 -0.9076330
C -1.3377000 -1.1919200 -1.0273350
C 1.5869930 -2.0079460 0.2683090
C 2.3392210 -1.2835760 -0.5627230
C 2.2608531 0.1782870 -0.7280610
H 1.7148830 -3.0838339 0.3507760
H 3.0693400 -1.7949200 -1.1899140
H -1.2049640 -1.6696010 -1.9935710
H -1.2215320 0.7944460 -1.7600230
H 0.8217160 -1.5527740 0.8940070
H 1.3943470 0.6949420 1.1348630
H 2.6536050 0.5729030 -1.6650610
H 1.7140419 2.0993409 -0.0282790
H -1.4711170 -1.8395730 -0.1659400
C -1.5242220 0.8393250 0.3799050
O -1.6941020 2.0317740 0.4877470
O -1.4867800 0.0208790 1.4580179
H -1.6423830 0.5960230 2.2245920
