19
 comment:c
C 1.2467951 0.8970240 0.0153530
C -0.6085030 0.2087510 -0.6562560
C -0.5203500 -1.2832810 -0.7039620
C 0.9841530 -1.8605180 0.0061710
C 2.0989220 -1.2339470 -0.7146070
C 2.1988809 0.1114190 -0.7375260
H 0.9933390 -2.9529591 -0.0288010
H 2.6923871 -1.8367890 -1.3992550
H -0.5558710 -1.6703820 -1.7250950
H -0.6991330 0.7409540 -1.6001470
H 0.8858250 -1.5335650 1.0463181
H 1.0871950 0.6065960 1.0539089
H 2.8541541 0.6059790 -1.4518141
H 1.2652140 1.9785520 -0.1166150
H -1.2919520 -1.7666490 -0.0995320
C -1.4015410 0.8529800 0.4123420
O -1.8276989 1.9864390 0.3971210
O -1.5039901 0.0727730 1.5223540
H -1.9625660 0.6229480 2.1777980
