19
 comment:c
C 1.3225510 0.9169310 0.0366040
C -0.6829300 0.1829990 -0.6835840
C -0.5946940 -1.2542160 -0.7381550
C 1.0605470 -1.8833801 0.0351400
C 2.0984361 -1.2447850 -0.7051780
C 2.1970620 0.1249350 -0.7296970
H 1.0243280 -2.9720080 -0.0138840
H 2.6551571 -1.8286160 -1.4360520
H -0.5620430 -1.6819540 -1.7386940
H -0.6709350 0.7579290 -1.6029630
H 0.8585630 -1.5113590 1.0399669
H 1.0431430 0.5874270 1.0336850
H 2.8104141 0.6017150 -1.4920160
H 1.3158110 1.9963911 -0.0982200
H -1.2707829 -1.7904350 -0.0736800
C -1.4063660 0.8500880 0.4085560
O -1.8248000 1.9872500 0.3981810
O -1.5026940 0.0724690 1.5234320
H -1.9569840 0.6258250 2.1788521
