19
 comment:c
C 1.6443280 1.0105391 0.1380740
C -1.0610710 0.1345980 -0.8226100
C -1.0290051 -1.1921530 -0.9209550
C 1.4600890 -2.0211539 0.2043190
C 2.1581531 -1.2963510 -0.6750840
C 2.2298830 0.1705250 -0.7196850
H 1.4455290 -3.1065230 0.1514140
H 2.7060800 -1.8197240 -1.4580441
H -0.7365860 -1.6819390 -1.8443069
H -0.8121270 0.7853460 -1.6539860
H 0.8986200 -1.5667970 1.0170710
H 1.0893919 0.6581120 1.0042540
H 2.7922471 0.5900190 -1.5531040
H 1.7192990 2.0871520 0.0155570
H -1.3183610 -1.8308090 -0.0917770
C -1.4912510 0.8499930 0.3959370
O -1.8052130 2.0171440 0.4318980
O -1.5037390 0.0717110 1.5070090
H -1.8377481 0.6431560 2.2174950
