19
 comment:c
C 1.7650300 1.0627860 0.1707650
C -1.3844080 0.1321920 -0.9347510
C -1.4119090 -1.1895710 -1.0793760
C 1.5841540 -1.9777470 0.3113510
C 2.3490241 -1.2595490 -0.5129000
C 2.2172551 0.1913230 -0.7320870
H 1.7453530 -3.0439069 0.4463210
H 3.1252880 -1.7638850 -1.0886450
H -1.3299870 -1.6502430 -2.0594749
H -1.2903070 0.8087270 -1.7784849
H 0.7703730 -1.5237150 0.8740440
H 1.4883440 0.7467960 1.1747710
H 2.5276749 0.5594080 -1.7101910
H 1.6607740 2.1197720 -0.0565040
H -1.5165319 -1.8516850 -0.2249530
C -1.4962370 0.8170860 0.3730510
O -1.6039770 2.0136449 0.5113080
O -1.4678630 -0.0266280 1.4313509
H -1.5660120 0.5379150 2.2150819
