19
 comment:c
C 1.1594330 0.8710090 -0.0162630
C -0.5192090 0.2355970 -0.6216220
C -0.4606240 -1.2968611 -0.6749600
C 0.9279510 -1.8453670 -0.0185220
C 2.0941310 -1.2302810 -0.7231500
C 2.1936769 0.1038460 -0.7435760
H 0.9552440 -2.9387369 -0.0543360
H 2.7329681 -1.8510031 -1.3481580
H -0.5255690 -1.6519450 -1.7084720
H -0.6886100 0.7262040 -1.5809690
H 0.8943320 -1.5537670 1.0390069
H 1.1077451 0.6277420 1.0498170
H 2.9008110 0.6157420 -1.3929650
H 1.1966569 1.9541060 -0.1496060
H -1.2885150 -1.7420990 -0.1140800
C -1.3922499 0.8565900 0.4188800
O -1.8313000 1.9838769 0.3947930
O -1.5065150 0.0732620 1.5214990
H -1.9758570 0.6162790 2.1757159
