19
 comment:c
C 1.7671310 1.0486870 0.1702340
C -1.3684180 0.1327000 -0.9235930
C -1.3854851 -1.1903570 -1.0580450
C 1.5870039 -1.9911690 0.2910020
C 2.3514531 -1.2698359 -0.5310930
C 2.2356830 0.1850120 -0.7319340
H 1.7382050 -3.0607159 0.4094090
H 3.1166289 -1.7755539 -1.1201710
H -1.2834090 -1.6583390 -2.0327489
H -1.2642170 0.8029060 -1.7711540
H 0.7848770 -1.5370750 0.8699500
H 1.4612310 0.7232380 1.1626550
H 2.5732329 0.5637910 -1.6967950
H 1.6785580 2.1093421 -0.0463580
H -1.5023960 -1.8462980 -0.2004730
C -1.5092770 0.8271250 0.3763120
O -1.6421120 2.0225191 0.5021880
O -1.4768040 -0.0062710 1.4427160
H -1.5976239 0.5630860 2.2197890
