19
 comment:c
C 0.5466690 1.4818790 0.5308240
C -1.5902669 0.7073340 -0.2302810
C -1.5187140 -0.6746700 -0.2960940
C 0.3023880 -1.3632669 0.5440500
C 1.2530160 -0.7149150 -0.2188910
C 1.3511580 0.6900510 -0.2450900
H 0.2126180 -2.4451649 0.4733750
H 1.7865130 -1.2805920 -0.9810360
H -1.3863920 -1.1421360 -1.2664150
H -1.4723210 1.3177890 -1.1170050
H -0.0238170 -0.9471610 1.4932010
H 0.1562480 1.1258680 1.4783500
H 1.9379801 1.1491660 -1.0387670
H 0.5216780 2.5596299 0.3924800
H -2.0738380 -1.2612441 0.4299800
C -2.2534511 1.3947740 0.8854250
O -2.6642880 2.5343871 0.8765520
O -2.3443420 0.6196130 2.0019391
H -2.7948389 1.1736600 2.6594019
