19
 comment:c
C 1.2260230 0.8911480 0.0085270
C -0.5875290 0.2153210 -0.6483770
C -0.5036420 -1.2884650 -0.6959660
C 0.9676550 -1.8557220 -0.0006450
C 2.0981369 -1.2324600 -0.7168620
C 2.1984351 0.1090810 -0.7392420
H 0.9840960 -2.9485950 -0.0343460
H 2.7023630 -1.8399709 -1.3877610
H -0.5497510 -1.6667230 -1.7207760
H -0.7008190 0.7365540 -1.5969300
H 0.8892970 -1.5388330 1.0452160
H 1.0950670 0.6119520 1.0552850
H 2.8660870 0.6079240 -1.4388601
H 1.2500100 1.9731430 -0.1232570
H -1.2928720 -1.7606670 -0.1043720
C -1.3998060 0.8537960 0.4137380
O -1.8285201 1.9859980 0.3966910
O -1.5044870 0.0728990 1.5220970
H -1.9648950 0.6216870 2.1775279
