19
 comment:c
C 1.0464261 0.8608430 -0.1151960
C -0.3530740 0.3134540 -0.5223720
C -0.3917300 -1.2286730 -0.6492150
C 0.8752770 -1.9132110 -0.1095540
C 2.0970731 -1.2657280 -0.7060960
C 2.1637869 0.0641140 -0.7339890
H 0.8406380 -2.9848080 -0.3309440
H 2.8904250 -1.8833300 -1.1215410
H -0.4869550 -1.4825259 -1.7102070
H -0.6162840 0.7668260 -1.4816970
H 0.8960710 -1.8182590 0.9860200
H 1.1385310 0.7990760 0.9793630
H 3.0140810 0.5868740 -1.1659830
H 1.1061190 1.9221990 -0.3734160
H -1.2745520 -1.6313550 -0.1436510
C -1.3464260 0.8790270 0.4665830
O -1.9216650 1.9347020 0.3492620
O -1.4885420 0.1071580 1.5680979
H -2.1003840 0.5882360 2.1493850
