19
 comment:c
C 1.5423310 0.9880830 0.1055590
C -0.9221530 0.1397640 -0.7753840
C -0.8877740 -1.1907860 -0.8670540
C 1.3428490 -1.9876260 0.1553470
C 2.1137829 -1.2890770 -0.6885230
C 2.2022591 0.1678700 -0.7206440
H 1.2585430 -3.0684290 0.0784740
H 2.6433079 -1.8241640 -1.4757990
H -0.5832570 -1.6843280 -1.7832320
H -0.6574280 0.7865010 -1.6035100
H 0.8273890 -1.5244280 0.9914280
H 1.0028360 0.6190930 0.9726230
H 2.7759430 0.5998890 -1.5393900
H 1.5697700 2.0667150 -0.0202460
H -1.2483330 -1.8237031 -0.0623280
C -1.4495940 0.8464150 0.4043760
O -1.8142860 1.9992959 0.4107960
O -1.5009830 0.0740830 1.5206400
H -1.9062001 0.6344420 2.2022350
