17
 comment:c
C 0.6778490 1.6671571 0.1230040
C -0.6657240 1.1561500 -0.4900470
C -0.7059250 -0.4041060 -0.4279690
C 0.8151190 -1.0249300 0.0540000
C 1.9136260 -0.2808450 -0.6512840
C 1.8404440 1.0501120 -0.6086940
H 0.8414880 -2.1051660 -0.1128180
H 2.6526070 -0.8086370 -1.2498460
H -0.9519580 -0.8293080 -1.4060971
H -0.7382420 1.4915920 -1.5294840
H 0.8595920 -0.8572730 1.1374370
H 0.6958310 1.3768950 1.1828030
H 2.5229139 1.6837699 -1.1707780
H 0.7174880 2.7600911 0.0966050
H -1.5114090 1.5918460 0.0522550
C -1.6714830 -0.9132700 0.5626070
N -2.2548621 -1.3811750 1.4485390
