17
 comment:c
C 1.2690350 1.8347960 0.3678220
C -1.3044450 1.0617000 -0.7815350
C -1.3554380 -0.2646540 -0.6631440
C 1.4083500 -1.2077841 0.2305480
C 1.9788510 -0.3525660 -0.6224550
C 1.9163930 1.1153150 -0.5531350
H 1.4960901 -2.2816939 0.0916190
H 2.5325270 -0.7584690 -1.4684269
H -1.0308380 -0.9259580 -1.4597650
H -0.9413610 1.5244700 -1.6925780
H 0.8564480 -0.8812200 1.1086310
H 0.7445940 1.3733300 1.2012740
H 2.4367709 1.6455220 -1.3502589
H 1.2672020 2.9208591 0.3345840
H -1.6324270 1.7215830 0.0162610
C -1.8248320 -0.8995710 0.5371770
N -2.2015750 -1.4153470 1.5039910
