17
 comment:c
C 1.3742940 1.8310260 0.3934800
C -1.5809200 1.0574540 -0.8797710
C -1.5371701 -0.2639210 -0.7174760
C 1.5331970 -1.2147720 0.2592320
C 2.0289450 -0.3532840 -0.6315580
C 2.0922940 1.1101270 -0.4702540
H 1.5133430 -2.2828720 0.0612890
H 2.4396279 -0.7440610 -1.5625330
H -1.2172641 -0.9300100 -1.5130320
H -1.2999650 1.5096520 -1.8253280
H 1.1432770 -0.8933690 1.2227460
H 0.6513060 1.3724101 1.0646250
H 2.7866890 1.6288100 -1.1308219
H 1.4955781 2.9081130 0.4666900
H -1.8929020 1.7221420 -0.0795220
C -1.8789040 -0.8902310 0.5312280
N -2.1455369 -1.4026260 1.5356040
