17
 comment:c
C 1.0617870 1.7774700 0.2804470
C -1.0597030 1.0682650 -0.6723060
C -1.1415480 -0.2680060 -0.5908340
C 1.2372820 -1.1635200 0.1795290
C 1.9334810 -0.3461050 -0.6245080
C 1.8530530 1.1021430 -0.5698060
H 1.2352310 -2.2399371 0.0308650
H 2.4949999 -0.7751410 -1.4528760
H -0.8716950 -0.9127630 -1.4183220
H -0.7495600 1.5494480 -1.5912780
H 0.7289080 -0.8114440 1.0705690
H 0.6121160 1.3064960 1.1485530
H 2.3598990 1.6527801 -1.3609610
H 0.9575670 2.8572941 0.2175230
H -1.4589900 1.7081190 0.1081940
C -1.7281020 -0.9017300 0.5528780
N -2.2298689 -1.3990480 1.4717010
