17
 comment:c
C 1.2843961 1.8364021 0.3735420
C -1.3258690 1.0610870 -0.7897830
C -1.3740640 -0.2650170 -0.6686880
C 1.4214360 -1.2085249 0.2340920
C 1.9856970 -0.3524130 -0.6219530
C 1.9255770 1.1160380 -0.5507920
H 1.5102760 -2.2822361 0.0944670
H 2.5356660 -0.7575890 -1.4707160
H -1.0507860 -0.9272100 -1.4652910
H -0.9665510 1.5225840 -1.7030931
H 0.8721240 -0.8827100 1.1142120
H 0.7583250 1.3754420 1.2063709
H 2.4464531 1.6457450 -1.3479420
H 1.2878979 2.9225090 0.3426360
H -1.6492060 1.7218980 0.0091590
C -1.8333930 -0.8994870 0.5359800
N -2.1991251 -1.4160740 1.5065700
