17
 comment:c
C 0.6727600 1.7065700 0.0975450
C -0.6354740 1.1226450 -0.4610880
C -0.6386060 -0.4308430 -0.3874380
C 0.7471340 -1.0193820 0.0095260
C 1.8657759 -0.2710090 -0.6607360
C 1.8413740 1.0591590 -0.5991370
H 0.7651450 -2.0896659 -0.2139350
H 2.6611490 -0.8180400 -1.1606930
H -0.9165780 -0.8364180 -1.3659570
H -0.7306120 1.4244670 -1.5087230
H 0.8525980 -0.9272800 1.0992399
H 0.7235020 1.5064220 1.1780500
H 2.6154881 1.6725990 -1.0540160
H 0.6781870 2.7941799 -0.0205640
H -1.4991190 1.5322890 0.0718370
C -1.6118770 -0.9343360 0.5903290
N -2.2911470 -1.3629529 1.4232600
