17
 comment:c
C 0.8356470 1.7016840 0.1890870
C -0.8318610 1.1244230 -0.5713000
C -0.9611850 -0.3141980 -0.5231660
C 1.0707780 -1.1061310 0.1345490
C 1.9350040 -0.3067400 -0.6337170
C 1.8500400 1.0633830 -0.5848000
H 1.0555890 -2.1826501 -0.0223870
H 2.5317731 -0.7745000 -1.4145590
H -0.9661830 -0.8775520 -1.4503520
H -0.7889580 1.5510540 -1.5714810
H 0.7973570 -0.8019370 1.1401380
H 0.6635200 1.3169440 1.1948030
H 2.3961020 1.6536310 -1.3183870
H 0.8152160 2.7914340 0.1619340
H -1.5019240 1.6773610 0.0865110
C -1.7058769 -0.9045950 0.5521010
N -2.2389500 -1.3912489 1.4615170
