17
 comment:c
C 0.7445890 1.6770480 0.1553970
C -0.7441180 1.1553870 -0.5302500
C -0.8662250 -0.3514700 -0.4901520
C 0.9761330 -1.0789120 0.1103750
C 1.9366280 -0.2909150 -0.6429710
C 1.8498770 1.0513310 -0.5964890
H 0.9863110 -2.1578231 -0.0457790
H 2.5858750 -0.7817750 -1.3651210
H -1.0101370 -0.8472040 -1.4494810
H -0.7823940 1.5366480 -1.5537519
H 0.8521640 -0.8252070 1.1633600
H 0.6893030 1.3417190 1.1971540
H 2.4448850 1.6635020 -1.2711580
H 0.7767180 2.7697949 0.1429520
H -1.5232110 1.6472610 0.0595690
C -1.7007650 -0.9068720 0.5537680
N -2.2432370 -1.3888440 1.4590040
