17
 comment:c
C 1.3746279 1.8330030 0.3942240
C -1.5629240 1.0570350 -0.8713050
C -1.5329890 -0.2653990 -0.7141710
C 1.5283760 -1.2133040 0.2559060
C 2.0368979 -0.3525400 -0.6285000
C 2.0791509 1.1132740 -0.4816840
H 1.5299040 -2.2830720 0.0663570
H 2.4747560 -0.7466250 -1.5454390
H -1.2187279 -0.9316180 -1.5118550
H -1.2758920 1.5100670 -1.8146120
H 1.1072201 -0.8911620 1.2058740
H 0.6789360 1.3724580 1.0924220
H 2.7477160 1.6361820 -1.1650569
H 1.4805570 2.9127209 0.4505520
H -1.8696460 1.7217489 -0.0690510
C -1.8829740 -0.8927240 0.5316770
N -2.1553071 -1.4058670 1.5341520
