17
 comment:c
C 1.1357780 1.8040050 0.3138580
C -1.1412860 1.0648620 -0.7104430
C -1.2102270 -0.2654430 -0.6161910
C 1.2954990 -1.1846189 0.1978990
C 1.9412500 -0.3505170 -0.6250870
C 1.8657820 1.1082830 -0.5667270
H 1.3341680 -2.2612879 0.0568390
H 2.5063810 -0.7700560 -1.4562190
H -0.9004400 -0.9178900 -1.4242440
H -0.7886780 1.5411510 -1.6172020
H 0.7554090 -0.8404880 1.0745180
H 0.6435760 1.3321249 1.1592000
H 2.3786530 1.6498590 -1.3606020
H 1.0659150 2.8871059 0.2604310
H -1.5062710 1.7130450 0.0803750
C -1.7545021 -0.9012710 0.5487100
N -2.2223120 -1.4047680 1.4816700
