17
 comment:c
C 0.6885720 1.6656210 0.1299330
C -0.6824050 1.1618980 -0.4990700
C -0.7521160 -0.3895140 -0.4470250
C 0.8624600 -1.0414460 0.0719920
C 1.9249480 -0.2831260 -0.6493390
C 1.8431890 1.0491270 -0.6060460
H 0.8879410 -2.1219771 -0.0887670
H 2.6388321 -0.7988800 -1.2878200
H -0.9813900 -0.8290730 -1.4218230
H -0.7496100 1.5095429 -1.5347511
H 0.8665240 -0.8478870 1.1503910
H 0.6930140 1.3641260 1.1861490
H 2.4983530 1.6792780 -1.2036930
H 0.7323330 2.7586710 0.1118230
H -1.5155890 1.6113050 0.0516230
C -1.6842350 -0.9104030 0.5590540
N -2.2505791 -1.3843271 1.4530129
