17
 comment:c
C 1.2996030 1.8376690 0.3790700
C -1.3478090 1.0602980 -0.7979570
C -1.3922930 -0.2655900 -0.6739990
C 1.4339770 -1.2087830 0.2373690
C 1.9929210 -0.3521490 -0.6214490
C 1.9354680 1.1167920 -0.5483170
H 1.5230010 -2.2823629 0.0969810
H 2.5389929 -0.7568400 -1.4729780
H -1.0711499 -0.9285460 -1.4709690
H -0.9929450 1.5206740 -1.7136910
H 0.8876360 -0.8833840 1.1196060
H 0.7718350 1.3769660 1.2110749
H 2.4570251 1.6461689 -1.3452530
H 1.3080310 2.9237959 0.3506450
H -1.6672090 1.7218699 0.0019460
C -1.8417259 -0.8995230 0.5348810
N -2.1968000 -1.4166070 1.5091460
