17
 comment:c
C 0.9818660 1.7471770 0.2440330
C -0.9749720 1.0783190 -0.6337930
C -1.0741820 -0.2754210 -0.5648160
C 1.1791101 -1.1402010 0.1610320
C 1.9304310 -0.3365500 -0.6245030
C 1.8467460 1.0917220 -0.5721170
H 1.1499420 -2.2153890 0.0053680
H 2.4926391 -0.7759640 -1.4466780
H -0.8800000 -0.9044860 -1.4246550
H -0.7478250 1.5557700 -1.5789670
H 0.7292340 -0.7922750 1.0838320
H 0.6072630 1.2945530 1.1563610
H 2.3560951 1.6534500 -1.3535269
H 0.8766550 2.8273571 0.1840060
H -1.4459510 1.7020520 0.1195320
C -1.7131751 -0.9023210 0.5536700
N -2.2343769 -1.3948210 1.4652580
