17
 comment:c
C 1.3757260 1.8346030 0.3960190
C -1.5461510 1.0569060 -0.8637830
C -1.5285760 -0.2663540 -0.7115050
C 1.5237740 -1.2123590 0.2534490
C 2.0437570 -0.3521550 -0.6249370
C 2.0641911 1.1157020 -0.4933770
H 1.5472840 -2.2835071 0.0735960
H 2.5081489 -0.7490140 -1.5273910
H -1.2193660 -0.9325260 -1.5111920
H -1.2535501 1.5107861 -1.8049459
H 1.0705600 -0.8895690 1.1883380
H 0.7129770 1.3725080 1.1245550
H 2.7033360 1.6421330 -1.2017061
H 1.4642630 2.9166811 0.4344030
H -1.8480110 1.7214750 -0.0595790
C -1.8859010 -0.8946360 0.5316940
N -2.1632371 -1.4084880 1.5324440
