17
 comment:c
C 1.3759720 1.8360270 0.3979090
C -1.5282100 1.0569839 -0.8566050
C -1.5226190 -0.2669390 -0.7090750
C 1.5186170 -1.2117980 0.2516810
C 2.0481989 -0.3518430 -0.6213130
C 2.0475559 1.1174901 -0.5047040
H 1.5630240 -2.2838769 0.0818300
H 2.5368459 -0.7507620 -1.5098550
H -1.2175530 -0.9329730 -1.5104530
H -1.2296690 1.5116730 -1.7954850
H 1.0363150 -0.8889170 1.1718520
H 0.7467710 1.3729150 1.1550170
H 2.6564059 1.6462440 -1.2375290
H 1.4464290 2.9199121 0.4191700
H -1.8260070 1.7213390 -0.0507180
C -1.8873900 -0.8961490 0.5314070
N -2.1697190 -1.4107320 1.5303940
