17
 comment:c
C 1.2210799 1.8272660 0.3492640
C -1.2419870 1.0630389 -0.7558150
C -1.2999589 -0.2642950 -0.6460780
C 1.3676240 -1.2028739 0.2190770
C 1.9608340 -0.3525140 -0.6239960
C 1.8926899 1.1130940 -0.5593080
H 1.4455680 -2.2777419 0.0813320
H 2.5229959 -0.7618660 -1.4625520
H -0.9711560 -0.9228750 -1.4427080
H -0.8728150 1.5305670 -1.6614940
H 0.8119410 -0.8716410 1.0924439
H 0.7044320 1.3630550 1.1855010
H 2.4115551 1.6460570 -1.3554660
H 1.1990560 2.9129269 0.3089690
H -1.5845270 1.7191660 0.0388660
C -1.7980520 -0.9001670 0.5412430
N -2.2093840 -1.4121310 1.4959290
