17
 comment:c
C 0.7168810 1.6702150 0.1436850
C -0.7155240 1.1615010 -0.5160660
C -0.8221470 -0.3666770 -0.4740890
C 0.9325170 -1.0650970 0.0966520
C 1.9341680 -0.2871720 -0.6459070
C 1.8476011 1.0495460 -0.6006810
H 0.9505580 -2.1448710 -0.0602710
H 2.6090109 -0.7874320 -1.3372930
H -1.0081429 -0.8369480 -1.4411711
H -0.7698520 1.5280830 -1.5452631
H 0.8637480 -0.8345090 1.1623009
H 0.6917380 1.3504400 1.1929170
H 2.4658010 1.6698370 -1.2463380
H 0.7582740 2.7632320 0.1314240
H -1.5218230 1.6341200 0.0542170
C -1.6961230 -0.9079600 0.5554090
N -2.2457359 -1.3874240 1.4572250
