19
 comment:c
C -0.8463810 -0.2830940 -1.2609990
C -0.8441340 -0.2828480 1.0658150
C 1.5686010 -0.2851170 -1.0611939
C 0.3907470 -0.8272380 -1.5702370
H 2.4921191 -0.8539860 -1.1536050
H 0.4314370 -1.8059011 -2.0466869
H -1.0758570 -1.3436249 1.0371790
H -0.9590880 0.7875780 -1.1207390
C 1.5252410 0.7925880 -0.1728710
H 2.4581800 1.1421540 0.2669060
H 0.8055680 1.5906810 -0.3419130
C 0.4545140 0.0940810 1.4433590
H 1.1552830 -0.6830800 1.7341970
H 0.5664660 1.0223230 2.0038631
C -2.0108900 0.6454540 1.3087130
H -1.7244810 1.6904590 1.1354229
H -2.8593760 0.4172410 0.6552020
H -2.3660891 0.5744570 2.3455269
H -1.7548079 -0.7972260 -1.5692830
