19
 comment:c
C -0.8633790 -0.2766380 -1.0793480
C -0.8530320 -0.2813820 0.8778860
C 1.5507730 -0.3112100 -1.0616480
C 0.4163600 -0.8307110 -1.5538530
H 2.5125511 -0.7868040 -1.2442570
H 0.4292110 -1.7452040 -2.1447520
H -1.0650210 -1.3272370 1.1165830
H -0.9673840 0.8008060 -1.2450250
C 1.4429170 0.7528520 -0.0318390
H 2.4160261 1.1153580 0.3136130
H 0.8660290 1.6167480 -0.3850160
C 0.5446970 0.1531890 1.3065610
H 1.1258600 -0.6683400 1.7369660
H 0.5111840 0.9700670 2.0381730
C -2.0009060 0.6398410 1.2973191
H -1.7296669 1.6894070 1.1279030
H -2.8915710 0.4274740 0.6956200
H -2.2810099 0.5368330 2.3536210
H -1.7536629 -0.7941360 -1.4470500
