19
 comment:c
C -0.8682160 -0.2789790 -0.9627300
C -0.8491410 -0.2712950 0.7591210
C 1.5454420 -0.3173980 -1.0489010
C 0.4130450 -0.8310020 -1.5324450
H 2.5230200 -0.7209480 -1.3055140
H 0.4044380 -1.6823390 -2.2107270
H -1.0435309 -1.3041461 1.0723990
H -0.9841330 0.7767740 -1.2493910
C 1.4184890 0.7339060 0.0221060
H 2.3974521 1.0857730 0.3638850
H 0.8902370 1.6138730 -0.3729120
C 0.5650590 0.1742200 1.2419270
H 1.1115460 -0.6620680 1.6927691
H 0.4864540 0.9549070 2.0101349
C -1.9881060 0.6336940 1.2798080
H -1.7387640 1.6910590 1.1238509
H -2.9144940 0.4303410 0.7296580
H -2.1961229 0.4943770 2.3474729
H -1.7533230 -0.8093690 -1.3305560
