19
 comment:c
C -0.8645670 -0.2767200 -1.0568360
C -0.8527720 -0.2799090 0.8547200
C 1.5496500 -0.3128910 -1.0596670
C 0.4167520 -0.8311140 -1.5509260
H 2.5152259 -0.7752830 -1.2556140
H 0.4262070 -1.7348040 -2.1582010
H -1.0612440 -1.3227050 1.1129550
H -0.9696910 0.7971560 -1.2503870
C 1.4360059 0.7484350 -0.0188650
H 2.4111240 1.1100390 0.3227420
H 0.8706860 1.6160480 -0.3835460
C 0.5511790 0.1585410 1.2924989
H 1.1238641 -0.6662910 1.7292449
H 0.5067800 0.9661580 2.0343730
C -1.9990370 0.6389790 1.2949190
H -1.7313970 1.6897970 1.1273140
H -2.8960850 0.4284990 0.7018010
H -2.2669201 0.5298560 2.3535540
H -1.7533990 -0.7961090 -1.4269550
