19
 comment:c
C -0.8673690 -0.2781680 -0.9865540
C -0.8504050 -0.2738030 0.7830890
C 1.5464840 -0.3166090 -1.0519360
C 0.4148230 -0.8313570 -1.5383900
H 2.5217190 -0.7358640 -1.2918910
H 0.4116000 -1.6973070 -2.1981170
H -1.0482050 -1.3086690 1.0859300
H -0.9794430 0.7825350 -1.2525949
C 1.4210800 0.7369290 0.0135780
H 2.3995831 1.0923780 0.3530350
H 0.8845300 1.6139040 -0.3758580
C 0.5635590 0.1712220 1.2537010
H 1.1157950 -0.6623460 1.7022901
H 0.4924680 0.9573070 2.0171289
C -1.9914989 0.6354020 1.2846090
H -1.7370110 1.6909400 1.1251730
H -2.9099579 0.4304940 0.7221820
H -2.2163520 0.5043690 2.3501079
H -1.7531600 -0.8050990 -1.3569500
