19
 comment:c
C -0.8424290 -0.2865390 -1.3485720
C -0.8488240 -0.2881630 1.1650190
C 1.5850970 -0.2704130 -1.0570800
C 0.3704290 -0.8303080 -1.5795130
H 2.4895689 -0.8722190 -1.1283150
H 0.4274630 -1.8217410 -2.0264411
H -1.0761091 -1.3338510 0.9796590
H -0.9625110 0.7481680 -1.0484350
C 1.5907249 0.8287410 -0.2701380
H 2.5014119 1.1612660 0.2213520
H 0.7879150 1.5571010 -0.2980840
C 0.3982060 0.0560870 1.5433090
H 1.1693330 -0.6898020 1.6953400
H 0.5930620 1.0361780 1.9753270
C -2.0177619 0.6493150 1.3098710
H -1.7185630 1.6916190 1.1427590
H -2.8356230 0.4175300 0.6195270
H -2.4239581 0.5892430 2.3275869
H -1.7554580 -0.8013120 -1.6372550
