19
 comment:c
C -0.8953340 -0.2966360 -0.8750240
C -0.8394800 -0.2640070 0.6717930
C 1.5319910 -0.3032720 -1.0367121
C 0.3842470 -0.8156680 -1.4780600
H 2.4961801 -0.6215330 -1.4273829
H 0.3520610 -1.5753011 -2.2561340
H -1.0118710 -1.2915530 1.0160840
H -1.0645120 0.7312550 -1.2348460
C 1.4580140 0.7212460 0.0649350
H 2.4486070 0.9682550 0.4603580
H 1.0353169 1.6585360 -0.3289670
C 0.5503650 0.1896670 1.1888220
H 1.0632139 -0.6552700 1.6621410
H 0.4314460 0.9569100 1.9645770
C -1.9588521 0.6150230 1.2308140
H -1.7670031 1.6731470 1.0099961
H -2.9306300 0.3542170 0.7946440
H -2.0388639 0.5110130 2.3188341
H -1.7642390 -0.8796090 -1.1997139
