19
 comment:c
C -0.8871570 -0.2889890 -0.8775480
C -0.8400640 -0.2628150 0.6730740
C 1.5355361 -0.3093660 -1.0344369
C 0.3891530 -0.8211480 -1.4800050
H 2.5045691 -0.6324430 -1.4087270
H 0.3539440 -1.5887541 -2.2500451
H -1.0165030 -1.2917150 1.0111080
H -1.0424000 0.7427770 -1.2326289
C 1.4428509 0.7254210 0.0565890
H 2.4282010 1.0059741 0.4422090
H 0.9906020 1.6451200 -0.3458110
C 0.5517180 0.1851190 1.1902781
H 1.0700330 -0.6620130 1.6535200
H 0.4379280 0.9481140 1.9709650
C -1.9591850 0.6165200 1.2382290
H -1.7493380 1.6785361 1.0560260
H -2.9260550 0.3840320 0.7758570
H -2.0618291 0.4785860 2.3205640
H -1.7620790 -0.8589580 -1.2088400
