19
 comment:c
C -0.8416060 -0.2852090 -1.3217930
C -0.8444120 -0.2842080 1.1315330
C 1.5795290 -0.2743750 -1.0579190
C 0.3769810 -0.8290080 -1.5765539
H 2.4898520 -0.8667250 -1.1326890
H 0.4275070 -1.8193160 -2.0269539
H -1.0742190 -1.3362730 0.9922010
H -0.9607770 0.7638830 -1.0744600
C 1.5638090 0.8122600 -0.2333980
H 2.4787550 1.1493590 0.2480090
H 0.7880040 1.5669800 -0.3108760
C 0.4171840 0.0703740 1.5043271
H 1.1673549 -0.6859020 1.7053570
H 0.5866680 1.0347720 1.9806401
C -2.0148001 0.6479010 1.3111980
H -1.7233450 1.6916950 1.1392890
H -2.8465400 0.4144840 0.6382020
H -2.3979330 0.5845670 2.3379331
H -1.7536030 -0.8036410 -1.6081390
