19
 comment:c
C -0.8420010 -0.2860710 -1.3346280
C -0.8461780 -0.2861070 1.1477820
C 1.5823300 -0.2721330 -1.0571491
C 0.3732920 -0.8295460 -1.5779819
H 2.4894781 -0.8696890 -1.1295820
H 0.4275670 -1.8205481 -2.0262909
H -1.0748440 -1.3351440 0.9850680
H -0.9611960 0.7557280 -1.0590971
C 1.5775180 0.8204730 -0.2520130
H 2.4897540 1.1553510 0.2354170
H 0.7869370 1.5612611 -0.3035080
C 0.4071870 0.0630420 1.5237120
H 1.1688110 -0.6876040 1.6996289
H 0.5902110 1.0361040 1.9764500
C -2.0160940 0.6485520 1.3102190
H -1.7208771 1.6916790 1.1408690
H -2.8412149 0.4162970 0.6287140
H -2.4103291 0.5865330 2.3326440
H -1.7550540 -0.8017220 -1.6221130
