19
 comment:c
C -0.8442650 -0.2871840 -1.3925880
C -0.8604510 -0.2950790 1.2186500
C 1.5928950 -0.2672850 -1.0598630
C 0.3656280 -0.8333140 -1.5850080
H 2.4917610 -0.8774590 -1.1332070
H 0.4307340 -1.8241490 -2.0321701
H -1.0837640 -1.3314151 0.9804420
H -0.9699680 0.7286540 -1.0358940
C 1.6285710 0.8532370 -0.3218520
H 2.5420790 1.1829261 0.1657230
H 0.8006620 1.5526950 -0.2926000
C 0.3759540 0.0369120 1.6023951
H 1.1648591 -0.6999420 1.6960700
H 0.5979920 1.0309041 1.9873400
C -2.0248849 0.6521000 1.3118080
H -1.7116830 1.6911180 1.1512030
H -2.8167701 0.4212490 0.5915980
H -2.4720290 0.6000810 2.3124249
H -1.7535790 -0.8004480 -1.6946760
