19
 comment:c
C -0.8422550 -0.2877010 -1.4956440
C -0.8989320 -0.3100060 1.3447770
C 1.6107290 -0.2640450 -1.0816100
C 0.3688050 -0.8404340 -1.6045099
H 2.5030429 -0.8815600 -1.1762810
H 0.4530840 -1.8265150 -2.0595961
H -1.1226720 -1.3381430 1.0670530
H -0.9889460 0.7034940 -1.0787790
C 1.7056680 0.8998250 -0.4330000
H 2.6475871 1.2385139 -0.0101950
H 0.8614250 1.5740820 -0.3261300
C 0.3329970 0.0007790 1.7367200
H 1.1251580 -0.7390590 1.7819850
H 0.5933150 1.0086221 2.0577581
C -2.0482061 0.6595840 1.3308210
H -1.6992960 1.6915550 1.2056100
H -2.7624300 0.4409650 0.5300110
H -2.6023920 0.6142650 2.2767379
H -1.7323260 -0.7955090 -1.8578280
