19
 comment:c
C -0.8451480 -0.2875470 -1.4370650
C -0.8754580 -0.3019280 1.2726780
C 1.6001600 -0.2657190 -1.0663950
C 0.3649280 -0.8365270 -1.5918330
H 2.4956000 -0.8802130 -1.1478480
H 0.4385970 -1.8250400 -2.0430360
H -1.0968660 -1.3322771 1.0052940
H -0.9788460 0.7146470 -1.0450850
C 1.6637501 0.8755220 -0.3708040
H 2.5880070 1.2078609 0.0940350
H 0.8238830 1.5585231 -0.3012560
C 0.3572180 0.0199240 1.6608140
H 1.1518430 -0.7150530 1.7202810
H 0.5982510 1.0214159 2.0144031
C -2.0341871 0.6552400 1.3174750
H -1.7054540 1.6907279 1.1668210
H -2.7955129 0.4269420 0.5643100
H -2.5259719 0.6100470 2.2972040
H -1.7472270 -0.7983450 -1.7637490
