19
 comment:c
C -0.8435180 -0.2877200 -1.4811500
C -0.8927200 -0.3081010 1.3267500
C 1.6078510 -0.2644750 -1.0769830
C 0.3673540 -0.8395030 -1.6008821
H 2.5008769 -0.8813700 -1.1684099
H 0.4492550 -1.8257830 -2.0558600
H -1.1153370 -1.3362280 1.0490050
H -0.9872130 0.7051530 -1.0678810
C 1.6957560 0.8943900 -0.4177200
H 2.6334870 1.2314399 0.0156090
H 0.8521100 1.5701720 -0.3187000
C 0.3391950 0.0051370 1.7179281
H 1.1326460 -0.7329790 1.7639610
H 0.5951340 1.0114990 2.0469050
C -2.0446091 0.6584900 1.3268549
H -1.7005830 1.6911680 1.1935970
H -2.7713411 0.4364840 0.5383800
H -2.5829189 0.6145360 2.2819300
H -1.7365670 -0.7959540 -1.8353640
