19
 comment:c
C -0.8116170 -0.2836490 -1.6164390
C -0.9635420 -0.3226480 1.5034040
C 1.6463749 -0.2620890 -1.1469010
C 0.3953230 -0.8510170 -1.6519949
H 2.5349460 -0.8828440 -1.2567340
H 0.4859360 -1.8490810 -2.0794680
H -1.2060730 -1.3570200 1.2607760
H -0.9686250 0.7135650 -1.2136170
C 1.7757200 0.9302990 -0.5622140
H 2.7397470 1.2815120 -0.2048550
H 0.9324630 1.6017849 -0.4216740
C 0.2708580 -0.0250160 1.8955700
H 1.0460310 -0.7816520 1.9733480
H 0.5586770 0.9940500 2.1510270
C -2.0846460 0.6702510 1.3867030
H -1.7072240 1.6989380 1.4041730
H -2.6530430 0.5279340 0.4607970
H -2.7951069 0.5607220 2.2157950
H -1.6881880 -0.7949220 -2.0051210
