19
 comment:c
C -0.7527180 -0.2834860 -1.7464330
C -1.0325830 -0.3106370 1.6303720
C 1.7068900 -0.2418010 -1.3028200
C 0.4361180 -0.8845110 -1.6813520
H 2.6112270 -0.7811690 -1.5836240
H 0.4989960 -1.9433690 -1.9316540
H -1.2690160 -1.3376110 1.3508480
H -0.8719850 0.7786510 -1.5427440
C 1.8294160 0.9138940 -0.6481070
H 2.8057721 1.3310010 -0.4178160
H 0.9631250 1.4775180 -0.3111010
C 0.1925460 -0.0256390 2.0598440
H 0.9652460 -0.7856390 2.1336789
H 0.4738150 0.9867820 2.3470290
C -2.1446440 0.6869830 1.4891630
H -1.8020990 1.7002161 1.7251040
H -2.5435460 0.6884220 0.4672910
H -2.9805131 0.4460590 2.1575220
H -1.6495340 -0.8320490 -2.0212650
