19
 comment:c
C -0.7616240 -0.2832630 -1.7258890
C -1.0265810 -0.3143940 1.6209930
C 1.6987970 -0.2510440 -1.2681700
C 0.4328880 -0.8757050 -1.6914310
H 2.6011021 -0.8202240 -1.4898760
H 0.5046150 -1.9172550 -2.0036430
H -1.2693681 -1.3449930 1.3609980
H -0.8956670 0.7612140 -1.4524950
C 1.8237820 0.9210710 -0.6436640
H 2.7997861 1.3150750 -0.3746600
H 0.9612500 1.5244150 -0.3714480
C 0.2037120 -0.0265730 2.0334489
H 0.9746470 -0.7878090 2.1123419
H 0.4914020 0.9894230 2.3009210
C -2.1370640 0.6848060 1.4770720
H -1.7840770 1.7023630 1.6764330
H -2.5610001 0.6596670 0.4658130
H -2.9576931 0.4677640 2.1720409
H -1.6502250 -0.8219580 -2.0433071
