19
 comment:c
C -0.7834980 -0.2823150 -1.6802779
C -1.0028080 -0.3212290 1.5815500
C 1.6747839 -0.2607860 -1.2036099
C 0.4180530 -0.8614980 -1.6840670
H 2.5679419 -0.8689680 -1.3426820
H 0.5024940 -1.8760000 -2.0724249
H -1.2517780 -1.3562390 1.3466260
H -0.9341010 0.7324870 -1.3194330
C 1.8052150 0.9311560 -0.6187920
H 2.7754481 1.2956390 -0.2931800
H 0.9555880 1.5860610 -0.4417800
C 0.2328160 -0.0284870 1.9738110
H 1.0027080 -0.7898950 2.0599451
H 0.5269150 0.9917710 2.2168939
C -2.1135349 0.6782940 1.4376791
H -1.7442870 1.7020800 1.5631160
H -2.5918679 0.6023660 0.4540940
H -2.8975630 0.5081240 2.1861520
H -1.6623930 -0.8025610 -2.0510349
