19
 comment:c
C -0.7952220 -0.2823350 -1.6547660
C -0.9872660 -0.3228160 1.5522950
C 1.6626850 -0.2617250 -1.1785070
C 0.4085830 -0.8567550 -1.6713630
H 2.5530839 -0.8776260 -1.3001910
H 0.4959370 -1.8641020 -2.0772500
H -1.2352051 -1.3583550 1.3191930
H -0.9488360 0.7249880 -1.2755260
C 1.7936090 0.9323850 -0.5980700
H 2.7611871 1.2902110 -0.2574110
H 0.9475910 1.5970941 -0.4417560
C 0.2484430 -0.0280140 1.9426240
H 1.0194950 -0.7881960 2.0284500
H 0.5415010 0.9925210 2.1858180
C -2.1009941 0.6747820 1.4153030
H -1.7267430 1.7010030 1.5006670
H -2.6119521 0.5731830 0.4509130
H -2.8601410 0.5277640 2.1938570
H -1.6726640 -0.7982510 -2.0350270
