19
 comment:c
C -0.7570200 -0.2833310 -1.7359750
C -1.0298769 -0.3124690 1.6260930
C 1.7032270 -0.2465190 -1.2857660
C 0.4347630 -0.8801600 -1.6871240
H 2.6071470 -0.8005920 -1.5375021
H 0.5020580 -1.9305410 -1.9695530
H -1.2697170 -1.3414130 1.3569250
H -0.8839140 0.7703290 -1.4962250
C 1.8264890 0.9173120 -0.6456800
H 2.8029239 1.3230010 -0.3962490
H 0.9612620 1.5002810 -0.3399280
C 0.1980800 -0.0259250 2.0463719
H 0.9698480 -0.7865940 2.1227779
H 0.4827910 0.9884380 2.3231070
C -2.1411309 0.6859590 1.4835140
H -1.7932390 1.7015190 1.7010210
H -2.5526810 0.6739060 0.4668220
H -2.9694130 0.4569830 2.1654150
H -1.6496900 -0.8272630 -2.0324759
