19
 comment:c
C -0.7337280 -0.2904110 -1.8009170
C -1.0388650 -0.2967060 1.6514940
C 1.7214020 -0.2192550 -1.3961000
C 0.4441860 -0.9011540 -1.6690550
H 2.6137271 -0.6881550 -1.8112870
H 0.4933520 -1.9840720 -1.7860200
H -1.2362430 -1.3008040 1.2754240
H -0.8210120 0.7926490 -1.7426000
C 1.8495840 0.8970750 -0.6781860
H 2.8182950 1.3662580 -0.5293830
H 0.9925630 1.3648570 -0.1997470
C 0.1525440 -0.0278230 2.1761751
H 0.9338130 -0.7803370 2.2373450
H 0.3948870 0.9624440 2.5597830
C -2.1578751 0.6929890 1.5125020
H -1.8690140 1.6768860 1.8968920
H -2.4468260 0.8070650 0.4601020
H -3.0514290 0.3624850 2.0558650
H -1.6470730 -0.8494080 -1.9865540
