19
 comment:c
C -0.7382470 -0.2870040 -1.7860250
C -1.0396080 -0.3031960 1.6469589
C 1.7171890 -0.2240020 -1.3683161
C 0.4406650 -0.8978510 -1.6632520
H 2.6139879 -0.7091130 -1.7539690
H 0.4911390 -1.9777991 -1.8037490
H -1.2563280 -1.3188339 1.3150290
H -0.8306570 0.7938950 -1.7019221
C 1.8429739 0.9026590 -0.6659980
H 2.8142149 1.3611830 -0.5015560
H 0.9818310 1.3922800 -0.2180610
C 0.1678530 -0.0270290 2.1292379
H 0.9445200 -0.7837350 2.1963530
H 0.4293300 0.9742570 2.4693339
C -2.1543641 0.6909820 1.5054190
H -1.8413880 1.6886120 1.8313370
H -2.4855151 0.7593480 0.4615870
H -3.0279961 0.3960670 2.0995491
H -1.6487650 -0.8444480 -1.9891790
