19
 comment:c
C -0.7318160 -0.2932430 -1.8073879
C -1.0313880 -0.2855080 1.6430290
C 1.7248380 -0.2175690 -1.4167770
C 0.4476460 -0.9025270 -1.6826280
H 2.6142709 -0.6752230 -1.8503740
H 0.4981750 -1.9852639 -1.8011930
H -1.1973490 -1.2698650 1.2049490
H -0.8194120 0.7897600 -1.7480700
C 1.8551290 0.8888620 -0.6841870
H 2.8227379 1.3621060 -0.5410670
H 1.0015960 1.3426530 -0.1863280
C 0.1375620 -0.0259220 2.2205000
H 0.9295940 -0.7682450 2.2664340
H 0.3491090 0.9455260 2.6653619
C -2.1634009 0.6914740 1.5201600
H -1.9079781 1.6563590 1.9705369
H -2.4165111 0.8607480 0.4658890
H -3.0692461 0.3141660 2.0099940
H -1.6456920 -0.8530060 -1.9881420
