19
 comment:c
C -0.7488010 -0.2838230 -1.7571260
C -1.0349270 -0.3089540 1.6347300
C 1.7099210 -0.2372450 -1.3191850
C 0.4370570 -0.8885070 -1.6750110
H 2.6134419 -0.7626840 -1.6279130
H 0.4958360 -1.9546810 -1.8936710
H -1.2675329 -1.3337430 1.3441859
H -0.8607140 0.7851960 -1.5881300
C 1.8328871 0.9110890 -0.6518420
H 2.8087699 1.3391310 -0.4402080
H 0.9668170 1.4557869 -0.2846050
C 0.1868510 -0.0257100 2.0747881
H 0.9603990 -0.7850660 2.1466701
H 0.4643140 0.9845700 2.3730221
C -2.1475830 0.6879150 1.4937460
H -1.8111720 1.6982540 1.7499480
H -2.5314181 0.7041000 0.4661520
H -2.9923120 0.4344320 2.1460950
H -1.6494530 -0.8360370 -2.0115170
