19
 comment:c
C -0.7414100 -0.2855270 -1.7770990
C -1.0384420 -0.3053510 1.6428380
C 1.7148750 -0.2279870 -1.3522110
C 0.4391430 -0.8953660 -1.6647850
H 2.6143200 -0.7249670 -1.7157410
H 0.4915370 -1.9721071 -1.8269020
H -1.2615480 -1.3246940 1.3268501
H -0.8390690 0.7928000 -1.6695050
C 1.8395420 0.9053670 -0.6603540
H 2.8125701 1.3551390 -0.4830210
H 0.9763070 1.4111310 -0.2351120
C 0.1747840 -0.0264060 2.1086850
H 0.9502300 -0.7841940 2.1773391
H 0.4426610 0.9784880 2.4327919
C -2.1523860 0.6898690 1.5017500
H -1.8302110 1.6926990 1.8018020
H -2.5033700 0.7386620 0.4633730
H -3.0155561 0.4100540 2.1181390
H -1.6492460 -0.8417900 -1.9948150
