17
 comment:c
C 0.0901570 1.1956450 0.7083820
C -1.8739320 0.5276220 -0.0450430
C -1.9312930 -0.8650580 -0.0477570
C -0.0173760 -1.6248950 0.6972640
C 0.9287370 -0.9493990 -0.0550390
C 0.9768690 0.4464540 -0.0542800
H 0.0843560 2.2812550 0.6097280
H -2.4021859 1.0828350 0.7261060
H -2.5078759 -1.3732190 0.7215330
H -0.0991880 -2.7049229 0.5957980
H 1.4659970 -1.4617270 -0.8500160
H -1.8551610 -1.3974600 -0.9904190
H -1.7503760 1.0584260 -0.9841320
H -0.3118010 -1.2482170 1.6718160
H -0.1852610 0.8338010 1.6916780
O 1.7353020 1.0132329 -1.0473419
H 1.7728400 1.9657640 -0.9002120
