17
 comment:c
C 0.7036230 1.3423769 0.9277900
C -2.6677170 0.4254720 -0.1338750
C -2.8940070 -0.8712210 -0.3116040
C 0.4357280 -1.6966470 0.7697060
C 1.2996540 -0.9387520 0.0979250
C 1.2310179 0.5329040 0.0034240
H 0.6684530 2.4209130 0.7926740
H -3.4092970 1.0769950 0.3234070
H -3.8292229 -1.3376800 -0.0099540
H 0.5572930 -2.7749939 0.8195640
H 2.1262450 -1.3907731 -0.4474900
H -2.1499870 -1.5189940 -0.7697180
H -1.7281640 0.8858460 -0.4292940
H -0.4268570 -1.2708139 1.2768450
H 0.3046690 0.9395590 1.8506880
O 1.8034920 0.9698350 -1.1567630
H 1.7897800 1.9360189 -1.1624770
