17
 comment:c
C 0.4210120 1.3007571 0.8692500
C -2.2864649 0.5026620 -0.1826700
C -2.3502350 -0.8233860 -0.1810090
C 0.3235380 -1.7442480 0.8061380
C 0.9891160 -0.9650470 -0.0445380
C 1.0242161 0.5063370 -0.0212530
H 0.4847610 2.3842540 0.8038030
H -2.6226311 1.0966750 0.6641850
H -2.7426200 -1.3787270 0.6683910
H 0.3395990 -2.8253870 0.7032430
H 1.5536370 -1.4079450 -0.8626860
H -2.0140510 -1.4130120 -1.0293150
H -1.8960810 1.0546160 -1.0330490
H -0.2501140 -1.3414360 1.6358950
H -0.1447510 0.8866120 1.6938300
O 1.7572920 0.9804460 -1.0743990
H 1.7735050 1.9451230 -1.0277160
