17
 comment:c
C 0.7626260 1.3816500 0.9098810
C -2.7368870 0.3665870 -0.0511230
C -2.9519379 -0.9027110 -0.3779050
C 0.4071370 -1.6515141 0.7805330
C 1.2978960 -0.9248730 0.1093320
C 1.2689960 0.5469890 -0.0043850
H 0.7589850 2.4591770 0.7630780
H -3.5402260 1.0075800 0.3058400
H -3.9378870 -1.3561790 -0.3038220
H 0.5001420 -2.7319119 0.8448540
H 2.1180749 -1.4052820 -0.4213100
H -2.1462669 -1.5397410 -0.7364730
H -1.7477530 0.8147210 -0.1240050
H -0.4500430 -1.1987020 1.2738320
H 0.3567950 1.0005940 1.8391370
O 1.8569040 0.9531220 -1.1670200
H 1.8637249 1.9191930 -1.1885580
