17
 comment:c
C 0.5414360 1.3010390 0.9129840
C -2.4782121 0.4979280 -0.2234630
C -2.5800121 -0.8259220 -0.2125290
C 0.4155750 -1.7478920 0.8151770
C 1.1089250 -0.9638400 -0.0076550
C 1.1041750 0.5111180 -0.0069410
H 0.5794440 2.3848729 0.8358170
H -2.8983991 1.1133130 0.5690360
H -3.0896339 -1.3551730 0.5899650
H 0.4886490 -2.8293700 0.7477490
H 1.7485670 -1.4022800 -0.7712020
H -2.1529350 -1.4377490 -1.0029120
H -1.9648089 1.0238800 -1.0239260
H -0.2484380 -1.3473560 1.5765090
H 0.0316640 0.8812140 1.7713150
O 1.7771400 0.9851270 -1.0990500
H 1.7828270 1.9504250 -1.0614769
