17
 comment:c
C 0.2116020 1.2389220 0.7606620
C -2.0063491 0.5025870 -0.0931270
C -2.0649559 -0.8332270 -0.0957180
C 0.1080280 -1.6729380 0.7377360
C 0.9297650 -0.9680910 -0.0540580
C 0.9800220 0.4784830 -0.0395040
H 0.1729690 2.3206079 0.6527740
H -2.3838880 1.0899560 0.7393180
H -2.4893999 -1.3875310 0.7375120
H -0.0050900 -2.7467000 0.6184640
H 1.4600440 -1.4519880 -0.8713160
H -1.8252530 -1.4100209 -0.9824710
H -1.7200350 1.0593450 -0.9790460
H -0.3560420 -1.2426450 1.6165839
H -0.2539050 0.8266950 1.6435190
O 1.7369450 1.0027970 -1.0529360
H 1.7650750 1.9614780 -0.9430800
