17
 comment:c
C -0.1236640 1.1405410 0.6332650
C -1.6500250 0.6015370 0.0403720
C -1.7069860 -0.9452620 0.0400010
C -0.2347210 -1.5615090 0.6359990
C 0.9244100 -0.9303340 -0.0694430
C 0.9585110 0.4038990 -0.0989280
H -0.0355400 2.2302840 0.5409200
H -2.4195609 1.0423900 0.6839610
H -2.5161741 -1.3193270 0.6782320
H -0.2152000 -2.6525760 0.5508840
H 1.5527821 -1.5013800 -0.7476960
H -1.8620180 -1.3465340 -0.9670600
H -1.7698270 1.0215830 -0.9636860
H -0.2376100 -1.3248230 1.7087450
H -0.1063240 0.8947140 1.7008970
O 1.7418410 1.0304660 -1.0338891
H 1.7841630 1.9746760 -0.8417640
