17
 comment:c
C 0.0365410 1.1819230 0.6918380
C -1.8200650 0.5487810 -0.0252480
C -1.8769751 -0.8891670 -0.0271480
C -0.0733710 -1.6084410 0.6829070
C 0.9323660 -0.9387810 -0.0587490
C 0.9776790 0.4303850 -0.0640440
H 0.0633710 2.2697330 0.5995210
H -2.4276719 1.0752710 0.7090950
H -2.5333059 -1.3593780 0.7040060
H -0.1192950 -2.6932831 0.5921610
H 1.4838860 -1.4653740 -0.8340050
H -1.8822100 -1.3858210 -0.9945110
H -1.7763960 1.0529250 -0.9881050
H -0.2762950 -1.2677290 1.6968670
H -0.1467180 0.8498150 1.7100420
O 1.7361810 1.0170430 -1.0453780
H 1.7761590 1.9674220 -0.8870920
