17
 comment:c
C 0.5201720 1.3010989 0.9067970
C -2.4465289 0.5004900 -0.2186870
C -2.5349951 -0.8242620 -0.2101140
C 0.4070010 -1.7491500 0.8208510
C 1.0775660 -0.9644660 -0.0200950
C 1.0871090 0.5101070 -0.0096860
H 0.5718800 2.3848310 0.8366060
H -2.8403690 1.1083831 0.5928830
H -3.0067799 -1.3621809 0.6095600
H 0.4641850 -2.8306160 0.7394730
H 1.6842721 -1.4030530 -0.8099570
H -2.1344280 -1.4286200 -1.0197771
H -1.9711430 1.0351861 -1.0365950
H -0.2198810 -1.3498820 1.6136780
H -0.0070650 0.8827380 1.7551640
O 1.7752560 0.9838340 -1.0925210
H 1.7847691 1.9489840 -1.0524980
