17
 comment:c
C 0.7117680 1.3473229 0.9252580
C -2.6800849 0.4184400 -0.1221530
C -2.9039891 -0.8756930 -0.3203730
C 0.4337460 -1.6912110 0.7708870
C 1.3009270 -0.9369830 0.0991820
C 1.2369440 0.5348030 0.0021850
H 0.6804800 2.4258060 0.7888050
H -3.4408970 1.0709990 0.3008380
H -3.8561540 -1.3388150 -0.0711210
H 0.5520120 -2.7698269 0.8226600
H 2.1269710 -1.3923820 -0.4442360
H -2.1408701 -1.5245340 -0.7444590
H -1.7239510 0.8754960 -0.3656690
H -0.4283680 -1.2621950 1.2763040
H 0.3117570 0.9470970 1.8488520
O 1.8116510 0.9679440 -1.1580720
H 1.7996060 1.9341410 -1.1662680
