17
 comment:c
C 0.4610520 1.3022230 0.8862700
C -2.3492980 0.5025820 -0.1987240
C -2.4173231 -0.8232690 -0.1950700
C 0.3599780 -1.7477920 0.8159320
C 1.0164250 -0.9646720 -0.0378120
C 1.0457710 0.5081260 -0.0165410
H 0.5272820 2.3855920 0.8220720
H -2.6977451 1.0992320 0.6413660
H -2.8262169 -1.3748440 0.6489790
H 0.3906460 -2.8290081 0.7178130
H 1.5870889 -1.4048491 -0.8531940
H -2.0646520 -1.4160531 -1.0346910
H -1.9385880 1.0508651 -1.0420920
H -0.2236840 -1.3480541 1.6405760
H -0.0939110 0.8874770 1.7182320
O 1.7633740 0.9806610 -1.0808541
H 1.7790220 1.9455160 -1.0369550
