17
 comment:c
C 0.3506510 1.2887950 0.8351750
C -2.1838720 0.5015750 -0.1527870
C -2.2434180 -0.8251010 -0.1527350
C 0.2518260 -1.7281330 0.7849290
C 0.9573580 -0.9674740 -0.0518610
C 0.9989050 0.4999710 -0.0290740
H 0.3880040 2.3729010 0.7585160
H -2.5169611 1.0936300 0.6963200
H -2.6274879 -1.3835371 0.6982510
H 0.2282710 -2.8087609 0.6774320
H 1.5146840 -1.4217030 -0.8685620
H -1.9255730 -1.4117490 -1.0094830
H -1.8158190 1.0569710 -1.0102420
H -0.3037890 -1.3119990 1.6190130
H -0.2104020 0.8729600 1.6608469
O 1.7487190 0.9855640 -1.0651810
H 1.7641400 1.9494530 -1.0057330
