17
 comment:c
C -0.1401790 1.1361140 0.6252140
C -1.6303930 0.6047240 0.0480880
C -1.6876841 -0.9479950 0.0476910
C -0.2502190 -1.5571610 0.6308070
C 0.9206400 -0.9310420 -0.0704760
C 0.9530250 0.4021480 -0.1040770
H -0.0515400 2.2257750 0.5298810
H -2.4092481 1.0392489 0.6853420
H -2.5052159 -1.3160430 0.6792440
H -0.2310760 -2.6481619 0.5424930
H 1.5601660 -1.5077580 -0.7332110
H -1.8493760 -1.3418990 -0.9615640
H -1.7600510 1.0170550 -0.9583280
H -0.2405950 -1.3303200 1.7062540
H -0.1088070 0.8987960 1.6950490
O 1.7427020 1.0324420 -1.0313220
H 1.7845670 1.9757700 -0.8345850
