17
 comment:c
C 0.1780110 1.2253840 0.7436790
C -1.9675230 0.5056170 -0.0792040
C -2.0257320 -0.8382510 -0.0819630
C 0.0732940 -1.6581560 0.7252620
C 0.9274510 -0.9649170 -0.0532510
C 0.9779670 0.4713670 -0.0423540
H 0.1373300 2.3072121 0.6347990
H -2.3762219 1.0888849 0.7412110
H -2.4814241 -1.3860320 0.7387630
H -0.0436190 -2.7318289 0.6073230
H 1.4553670 -1.4558920 -0.8677820
H -1.8227071 -1.4084520 -0.9818220
H -1.7179670 1.0598670 -0.9776380
H -0.3535800 -1.2369150 1.6270370
H -0.2433690 0.8229500 1.6531790
O 1.7356540 1.0060900 -1.0509390
H 1.7673780 1.9630010 -0.9289790
