17
 comment:c
C -0.0715900 1.1545269 0.6553940
C -1.7083150 0.5881490 0.0174900
C -1.7647080 -0.9319710 0.0169480
C -0.1840810 -1.5764101 0.6523440
C 0.9316620 -0.9297280 -0.0663760
C 0.9700760 0.4097390 -0.0860260
H 0.0063160 2.2442119 0.5674300
H -2.4399540 1.0528710 0.6850180
H -2.5398941 -1.3301560 0.6795010
H -0.1738600 -2.6668029 0.5712180
H 1.5300430 -1.4851700 -0.7838400
H -1.8885920 -1.3591630 -0.9818370
H -1.7894360 1.0335830 -0.9774760
H -0.2360050 -1.3088150 1.7139390
H -0.1055960 0.8822410 1.7136840
O 1.7395689 1.0254040 -1.0393270
H 1.7820190 1.9718280 -0.8592170
