17
 comment:c
C 0.4344570 1.3015690 0.8752000
C -2.3074100 0.5027600 -0.1882850
C -2.3723831 -0.8232320 -0.1860510
C 0.3363780 -1.7458700 0.8097890
C 0.9975010 -0.9648510 -0.0425160
C 1.0309080 0.5070450 -0.0196710
H 0.5001420 2.3849859 0.8106390
H -2.6463709 1.0974571 0.6570040
H -2.7687380 -1.3775311 0.6621910
H 0.3580140 -2.8270309 0.7083090
H 1.5636410 -1.4065410 -0.8602120
H -2.0317850 -1.4137400 -1.0320830
H -1.9114650 1.0536979 -1.0368340
H -0.2402250 -1.3445410 1.6383710
H -0.1283400 0.8874210 1.7019490
O 1.7592781 0.9802850 -1.0764270
H 1.7754730 1.9450320 -1.0309221
