17
 comment:c
C -0.1896840 1.1417150 0.5560060
C -1.5588800 0.6050470 0.0895020
C -1.6063200 -0.9429490 0.0958060
C -0.2946680 -1.5670100 0.6208400
C 0.8788170 -0.9455500 -0.0930170
C 0.8940240 0.3853480 -0.1674840
H -0.1234120 2.2227099 0.3786550
H -2.3471529 1.0220060 0.7265770
H -2.4539220 -1.2965961 0.6945060
H -0.3132310 -2.6514940 0.4724120
H 1.6071680 -1.5490340 -0.6262850
H -1.7676170 -1.3075970 -0.9243460
H -1.7430490 0.9799420 -0.9231520
H -0.2295630 -1.4082760 1.7083800
H -0.0865410 0.9887440 1.6383280
O 1.7669230 1.0564359 -0.9780600
H 1.7606450 1.9906870 -0.7397330
