17
 comment:c
C 0.6273060 1.3085140 0.9359450
C -2.5729201 0.4765050 -0.2140500
C -2.7568779 -0.8385700 -0.2387560
C 0.4331130 -1.7337470 0.7746480
C 1.2458600 -0.9545510 0.0642800
C 1.1721940 0.5181140 0.0057720
H 0.5919620 2.3891640 0.8197630
H -3.1735830 1.1270660 0.4178390
H -3.5162740 -1.3233720 0.3709490
H 0.5613770 -2.8123741 0.7864210
H 2.0347681 -1.3902500 -0.5462380
H -2.1515279 -1.4847890 -0.8697980
H -1.8096091 0.9562370 -0.8205250
H -0.3915350 -1.3265589 1.3539280
H 0.2089100 0.8892460 1.8426610
O 1.7607419 0.9827990 -1.1370209
H 1.7449811 1.9487140 -1.1200470
