17
 comment:c
C 0.5973040 1.3041420 0.9285650
C -2.5429299 0.4861110 -0.2218490
C -2.6981471 -0.8327950 -0.2232320
C 0.4225260 -1.7401290 0.7824710
C 1.2065320 -0.9588250 0.0426390
C 1.1507440 0.5150080 0.0023790
H 0.5813310 2.3862431 0.8226640
H -3.0747221 1.1255840 0.4792760
H -3.3640809 -1.3329120 0.4767910
H 0.5389610 -2.8200250 0.7701240
H 1.9592590 -1.3952540 -0.6113420
H -2.1606100 -1.4680470 -0.9228330
H -1.8737030 0.9817130 -0.9198210
H -0.3641840 -1.3353130 1.4135330
H 0.1523970 0.8835800 1.8219340
O 1.7669179 0.9846780 -1.1240910
H 1.7571130 1.9504580 -1.0997339
