17
 comment:c
C 0.2280710 1.2456191 0.7694250
C -2.0259700 0.5017800 -0.1000800
C -2.0844591 -0.8315400 -0.1024440
C 0.1248370 -1.6801440 0.7437940
C 0.9314440 -0.9690550 -0.0544720
C 0.9812990 0.4815660 -0.0383150
H 0.1939960 2.3275640 0.6634600
H -2.3918951 1.0903521 0.7368070
H -2.4976239 -1.3877690 0.7353070
H 0.0174200 -2.7545199 0.6251100
H 1.4639570 -1.4495341 -0.8723270
H -1.8301690 -1.4104640 -0.9838900
H -1.7247289 1.0590440 -0.9808200
H -0.3545010 -1.2475260 1.6134330
H -0.2559310 0.8301270 1.6407470
O 1.7378510 1.0010160 -1.0540650
H 1.7639660 1.9605350 -0.9504830
