17
 comment:c
C 0.1256760 1.2063119 0.7209510
C -1.9105290 0.5161080 -0.0584310
C -1.9681730 -0.8516180 -0.0613290
C 0.0194360 -1.6371280 0.7076360
C 0.9270070 -0.9566810 -0.0534580
C 0.9765470 0.4574730 -0.0486610
H 0.1006780 2.2901261 0.6171100
H -2.3860581 1.0860130 0.7352390
H -2.4914031 -1.3800560 0.7314340
H -0.0829050 -2.7138269 0.5981950
H 1.4580530 -1.4597470 -0.8585400
H -1.8373330 -1.4030950 -0.9861380
H -1.7328680 1.0598511 -0.9804850
H -0.3336870 -1.2395040 1.6522430
H -0.2120270 0.8262500 1.6756730
O 1.7350680 1.0105240 -1.0486180
H 1.7707020 1.9647280 -0.9104660
