17
 comment:c
C 0.4859130 1.3018200 0.8956690
C -2.3900499 0.5021910 -0.2077930
C -2.4638541 -0.8233920 -0.2025210
C 0.3813930 -1.7487741 0.8201710
C 1.0384020 -0.9646540 -0.0320720
C 1.0618980 0.5089530 -0.0136840
H 0.5492630 2.3852930 0.8309190
H -2.7529681 1.1020560 0.6238830
H -2.8923819 -1.3709090 0.6343830
H 0.4211140 -2.8300929 0.7269190
H 1.6179590 -1.4040180 -0.8416140
H -2.0949681 -1.4195750 -1.0328521
H -1.9586149 1.0464360 -1.0434771
H -0.2135980 -1.3496391 1.6371340
H -0.0620250 0.8854670 1.7316910
O 1.7683131 0.9817150 -1.0852510
H 1.7816390 1.9467040 -1.0431221
