17
 comment:c
C -0.2155390 1.1802170 0.4488250
C -1.6062120 0.5842840 0.1487850
C -1.6305730 -0.9634290 0.1639900
C -0.2873020 -1.5851181 0.5865290
C 0.8551560 -0.9394420 -0.1546680
C 0.8772690 0.3912060 -0.2250690
H -0.1930300 2.2338560 0.1385980
H -2.3232260 0.9891930 0.8717370
H -2.4292099 -1.3241850 0.8224590
H -0.3091790 -2.6643100 0.4019060
H 1.6370140 -1.5341250 -0.6177510
H -1.8656631 -1.3276531 -0.8419520
H -1.9274940 0.9417840 -0.8355590
H -0.1582340 -1.4652110 1.6737580
H -0.0405440 1.1740640 1.5338120
O 1.8780200 1.0606140 -0.8730180
H 1.7037010 2.0071249 -0.8217770
