17
 comment:c
C 0.1949240 1.2321490 0.7520520
C -1.9868560 0.5038130 -0.0861620
C -2.0453620 -0.8354270 -0.0888810
C 0.0908240 -1.6655650 0.7315190
C 0.9284290 -0.9667250 -0.0536220
C 0.9789110 0.4751060 -0.0408290
H 0.1540670 2.3137879 0.6432060
H -2.3786311 1.0894670 0.7408170
H -2.4839139 -1.3869910 0.7387130
H -0.0255430 -2.7390680 0.6124670
H 1.4571379 -1.4541160 -0.8697990
H -1.8226960 -1.4093940 -0.9817570
H -1.7177711 1.0596230 -0.9779900
H -0.3558370 -1.2390550 1.6210930
H -0.2497460 0.8242680 1.6476780
O 1.7362109 1.0044830 -1.0518939
H 1.7662240 1.9622920 -0.9359000
