17
 comment:c
C -0.2115040 1.1742090 0.4643080
C -1.6002460 0.5871780 0.1392940
C -1.6281990 -0.9605310 0.1550280
C -0.2887740 -1.5817820 0.5924480
C 0.8577200 -0.9407960 -0.1468080
C 0.8796460 0.3899560 -0.2177720
H -0.1818760 2.2333541 0.1747270
H -2.3284619 0.9947000 0.8495210
H -2.4338801 -1.3196460 0.8058080
H -0.3100310 -2.6621630 0.4151920
H 1.6322820 -1.5378120 -0.6189450
H -1.8529650 -1.3258020 -0.8528690
H -1.9009200 0.9464770 -0.8508710
H -0.1681010 -1.4539790 1.6797349
H -0.0470500 1.1444950 1.5504659
O 1.8642660 1.0604089 -0.8885870
H 1.7144819 2.0080111 -0.7963030
