17
 comment:c
C 0.5867580 1.3034110 0.9251880
C -2.5326719 0.4883280 -0.2228610
C -2.6780670 -0.8316540 -0.2194840
C 0.4188690 -1.7414910 0.7858790
C 1.1923560 -0.9598590 0.0353600
C 1.1434259 0.5142860 0.0009170
H 0.5782550 2.3859291 0.8229900
H -3.0412979 1.1235780 0.4990180
H -3.3129210 -1.3371060 0.5052110
H 0.5303720 -2.8217609 0.7655880
H 1.9316280 -1.3968340 -0.6333960
H -2.1632690 -1.4628600 -0.9395200
H -1.8942831 0.9895400 -0.9453670
H -0.3534500 -1.3372910 1.4347720
H 0.1316240 0.8827500 1.8133430
O 1.7698621 0.9850060 -1.1195430
H 1.7621469 1.9507329 -1.0930970
