19
 comment:c
C -1.2087640 0.2982480 -1.1135190
C -1.1974200 0.3047440 0.9170230
C 0.1155930 0.2962790 1.3916340
C 1.4588979 -0.4595610 -0.4806260
C 0.5937750 -1.3307550 -1.1063679
C -0.7047740 -0.9524700 -1.4639890
H -2.2445560 0.5253980 -1.3614730
H -1.7484070 1.2446270 0.9500180
H 2.4160149 -0.8138870 -0.1035620
H 0.8571840 -2.3863609 -1.1628520
H -1.4007490 -1.7223769 -1.7920150
H 0.4754160 -0.5939040 1.8970110
H -1.8132631 -0.5727510 1.0943960
H 1.4055560 0.6066570 -0.6679260
H -0.5587110 1.1705320 -1.1560010
C 0.8869280 1.5740041 1.6251390
H 0.4433030 2.1845040 2.4226770
H 1.9248250 1.3660229 1.9031180
H 0.9080400 2.2018449 0.7234990
