19
 comment:c
C -1.2120080 0.3034730 -1.0612690
C -1.1941700 0.3079270 0.8594780
C 0.1547430 0.2777650 1.3486260
C 1.4317230 -0.4402030 -0.4357320
C 0.5799230 -1.3324701 -1.1092790
C -0.6963930 -0.9628530 -1.4622650
H -2.2414651 0.5228240 -1.3477390
H -1.7268540 1.2521681 0.9919650
H 2.3918159 -0.8010890 -0.0693500
H 0.8650450 -2.3812850 -1.1837970
H -1.3927420 -1.7207720 -1.8162370
H 0.4551710 -0.5822100 1.9399610
H -1.8144619 -0.5529890 1.1047200
H 1.4308320 0.6091350 -0.7158430
H -0.5658420 1.1731300 -1.1953440
C 0.8829120 1.5717590 1.6266060
H 0.4270070 2.1474710 2.4437270
H 1.9279680 1.3836190 1.8916640
H 0.8784970 2.2208569 0.7403920
