19
 comment:c
C -1.2099290 0.2994430 -1.0980520
C -1.1946549 0.3068430 0.8995830
C 0.1294820 0.2896040 1.3766850
C 1.4491260 -0.4534240 -0.4652360
C 0.5891310 -1.3310159 -1.1073660
C -0.7020510 -0.9560150 -1.4640239
H -2.2442141 0.5238490 -1.3568569
H -1.7381690 1.2501390 0.9630450
H 2.4067991 -0.8094640 -0.0902800
H 0.8589930 -2.3847771 -1.1679831
H -1.3983819 -1.7228400 -1.7984180
H 0.4706140 -0.5912990 1.9107630
H -1.8143220 -0.5638580 1.0996250
H 1.4128590 0.6083590 -0.6831440
H -0.5611520 1.1718100 -1.1702811
C 0.8844750 1.5730610 1.6260170
H 0.4371210 2.1680501 2.4334230
H 1.9261090 1.3733770 1.8959000
H 0.8924290 2.2106400 0.7311540
