19
 comment:c
C -1.2201120 0.3149090 -0.9435850
C -1.1895180 0.3091550 0.7313030
C 0.2436800 0.2356760 1.2359260
C 1.3617790 -0.3902550 -0.3204310
C 0.5581210 -1.3366390 -1.1076400
C -0.6884170 -0.9784250 -1.4493760
H -2.2366309 0.5165440 -1.2957780
H -1.6841429 1.2348560 1.0529270
H 2.3268969 -0.7713270 0.0233780
H 0.9099590 -2.3550589 -1.2655290
H -1.3727829 -1.6944380 -1.9005840
H 0.4050050 -0.5430320 1.9854270
H -1.7940360 -0.5357130 1.0768760
H 1.4902680 0.5863090 -0.7969520
H -0.5911720 1.1652991 -1.2388070
C 0.8818570 1.5650311 1.6219060
H 0.3814130 2.0730619 2.4570961
H 1.9309850 1.4145850 1.8980910
H 0.8613620 2.2505860 0.7649040
