19
 comment:c
C -1.2162319 0.3112940 -0.9889850
C -1.1941791 0.3088040 0.7815240
C 0.2049490 0.2541530 1.2885740
C 1.3949569 -0.4120580 -0.3732000
C 0.5654190 -1.3359250 -1.1107440
C -0.6893850 -0.9736210 -1.4559830
H -2.2364199 0.5202780 -1.3222810
H -1.7053660 1.2440950 1.0366350
H 2.3595281 -0.7845680 -0.0241330
H 0.8859810 -2.3703251 -1.2274491
H -1.3813750 -1.7096100 -1.8610430
H 0.4214600 -0.5576900 1.9823270
H -1.8064330 -0.5400180 1.0963260
H 1.4682430 0.5996070 -0.7735320
H -0.5789400 1.1699851 -1.2287360
C 0.8819090 1.5687490 1.6253870
H 0.4036000 2.1095750 2.4536090
H 1.9299639 1.4007550 1.8935291
H 0.8662880 2.2364271 0.7540040
