19
 comment:c
C -1.2216800 0.3156310 -0.9313060
C -1.1867690 0.3091100 0.7170990
C 0.2567910 0.2294750 1.2168670
C 1.3495390 -0.3829750 -0.3016730
C 0.5561200 -1.3361740 -1.1055200
C -0.6887010 -0.9794700 -1.4469550
H -2.2378700 0.5149380 -1.2863430
H -1.6759560 1.2320091 1.0556450
H 2.3141179 -0.7667120 0.0423890
H 0.9193620 -2.3480921 -1.2781720
H -1.3696610 -1.6881460 -1.9145910
H 0.4028080 -0.5402310 1.9800580
H -1.7888300 -0.5351930 1.0695530
H 1.4957440 0.5816740 -0.7996450
H -0.5955940 1.1638600 -1.2404330
C 0.8819720 1.5633090 1.6201180
H 0.3731460 2.0587039 2.4575081
H 1.9312429 1.4193720 1.8999130
H 0.8600150 2.2559791 0.7689040
