19
 comment:c
C -1.2278240 0.3166080 -0.9047690
C -1.1748580 0.3082900 0.6832640
C 0.2961150 0.2112520 1.1568540
C 1.3102950 -0.3613870 -0.2430440
C 0.5505910 -1.3319610 -1.0951509
C -0.6906680 -0.9812880 -1.4398400
H -2.2457120 0.5086650 -1.2593380
H -1.6478660 1.2251210 1.0598160
H 2.2709501 -0.7527790 0.1075090
H 0.9507520 -2.3207750 -1.3126709
H -1.3581220 -1.6666780 -1.9586980
H 0.4071490 -0.5388710 1.9480200
H -1.7700210 -0.5356410 1.0501080
H 1.5071120 0.5691600 -0.7927570
H -0.6105090 1.1607240 -1.2450700
C 0.8828540 1.5560640 1.6125330
H 0.3464880 2.0083420 2.4560380
H 1.9317980 1.4334550 1.9054530
H 0.8556230 2.2732551 0.7818790
