19
 comment:c
C -1.2379700 0.3160880 -0.8924260
C -1.1567340 0.3064810 0.6599120
C 0.3331570 0.1947910 1.0970480
C 1.2705261 -0.3407430 -0.1839590
C 0.5445280 -1.3222899 -1.0766870
C -0.6935210 -0.9812690 -1.4341910
H -2.2616141 0.4979890 -1.2349530
H -1.6125460 1.2202580 1.0631480
H 2.2227149 -0.7407480 0.1817570
H 0.9864020 -2.2818661 -1.3383930
H -1.3393980 -1.6425821 -2.0083239
H 0.4237410 -0.5457460 1.9013150
H -1.7446840 -0.5377900 1.0379020
H 1.5150330 0.5597760 -0.7681400
H -0.6320330 1.1596121 -1.2562521
C 0.8849000 1.5441210 1.6007770
H 0.3188050 1.9447430 2.4499991
H 1.9324090 1.4452610 1.9090199
H 0.8481170 2.2898309 0.7957280
