19
 comment:c
C -1.2986760 0.3010460 -0.8997950
C -1.1220750 0.3139420 0.6273390
C 0.3615230 0.1842570 1.0479730
C 1.2538770 -0.3312200 -0.1115490
C 0.5361850 -1.2886170 -1.0281510
C -0.6882740 -0.9652700 -1.4413170
H -2.3572490 0.3890350 -1.1650990
H -1.5526520 1.2299280 1.0515380
H 2.1706460 -0.7713230 0.2958830
H 1.0312231 -2.2008989 -1.3543230
H -1.2569500 -1.6018690 -2.1157990
H 0.4213140 -0.5541560 1.8573800
H -1.6995010 -0.5232580 1.0355580
H 1.5747950 0.5393740 -0.7061050
H -0.7925770 1.1779230 -1.3328040
C 0.9021940 1.5123290 1.5787309
H 0.3432630 1.8436151 2.4612150
H 1.9597780 1.4334379 1.8577570
H 0.8164110 2.2963350 0.8147820
