19
 comment:c
C -1.2145640 0.2915820 -1.3175110
C -1.2117040 0.3216060 1.1178679
C 0.0650700 0.3279040 1.5080620
C 1.5225680 -0.5011700 -0.5753670
C 0.6196280 -1.3382680 -1.1045200
C -0.7261270 -0.9463430 -1.4848650
H -2.2608080 0.5173530 -1.5051390
H -1.7477970 1.2465800 0.9124250
H 2.4778810 -0.8595710 -0.2008520
H 0.8476790 -2.4026999 -1.1396680
H -1.4091990 -1.7437510 -1.7732331
H 0.5237870 -0.6013550 1.8333350
H -1.8065000 -0.5851140 1.1183910
H 1.3913300 0.5737190 -0.5915670
H -0.5749590 1.1458930 -1.1226780
C 0.8835960 1.5866849 1.6404260
H 0.5093610 2.2107470 2.4604869
H 1.9357450 1.3678740 1.8471340
H 0.8464850 2.2027330 0.7319700
