19
 comment:c
C -1.2177850 0.2893370 -1.4037030
C -1.2278110 0.3310250 1.2019531
C 0.0508010 0.3443240 1.5701340
C 1.5522350 -0.5197880 -0.6195190
C 0.6233020 -1.3466880 -1.1100280
C -0.7288180 -0.9512920 -1.5005560
H -2.2586319 0.5082610 -1.6259630
H -1.7615710 1.2472240 0.9532850
H 2.5141521 -0.8892800 -0.2740250
H 0.8429350 -2.4128580 -1.1502070
H -1.4021040 -1.7554179 -1.7942380
H 0.5249780 -0.5877540 1.8669530
H -1.8105119 -0.5840210 1.1820490
H 1.4153930 0.5553270 -0.5972110
H -0.5916250 1.1415499 -1.1587180
C 0.8831080 1.5983640 1.6559620
H 0.5599350 2.2268910 2.4941599
H 1.9435920 1.3732660 1.8051920
H 0.7973740 2.2100790 0.7484830
