19
 comment:c
C -1.2173020 0.2902090 -1.3830190
C -1.2237060 0.3285470 1.1814131
C 0.0542560 0.3399320 1.5543470
C 1.5451720 -0.5150560 -0.6083240
C 0.6225930 -1.3443871 -1.1081300
C -0.7284690 -0.9498530 -1.4961500
H -2.2599189 0.5110160 -1.5949230
H -1.7576700 1.2469150 0.9417500
H 2.5053749 -0.8817300 -0.2550910
H 0.8442890 -2.4101379 -1.1469860
H -1.4041910 -1.7524980 -1.7880501
H 0.5256540 -0.5919690 1.8552850
H -1.8088530 -0.5847720 1.1631449
H 1.4085031 0.5599490 -0.5934680
H -0.5875350 1.1421890 -1.1474960
C 0.8832850 1.5952049 1.6516750
H 0.5464240 2.2231250 2.4848859
H 1.9418610 1.3719420 1.8164120
H 0.8105090 2.2074161 0.7432380
