19
 comment:c
C -1.2086550 0.2933950 -1.1968400
C -1.2002560 0.3085520 1.0022260
C 0.0841550 0.3121410 1.4396820
C 1.4868040 -0.4789860 -0.5250680
C 0.6090090 -1.3313400 -1.1034340
C -0.7162770 -0.9445650 -1.4699650
H -2.2522459 0.5241920 -1.3964070
H -1.7518160 1.2421560 0.9069430
H 2.4404590 -0.8302290 -0.1387470
H 0.8519580 -2.3923230 -1.1440810
H -1.4084740 -1.7284440 -1.7722210
H 0.5010460 -0.6028780 1.8482950
H -1.8090880 -0.5850780 1.0875340
H 1.3855690 0.5948310 -0.6194540
H -0.5585030 1.1595470 -1.1190820
C 0.8870050 1.5773590 1.6276129
H 0.4644770 2.2032950 2.4231980
H 1.9256570 1.3584380 1.8941849
H 0.9044770 2.1936569 0.7180830
