19
 comment:c
C -1.2161300 0.2816380 -1.4982980
C -1.2472870 0.3458410 1.3002280
C 0.0345810 0.3685140 1.6507370
C 1.5825320 -0.5433840 -0.6774660
C 0.6256680 -1.3603820 -1.1247690
C -0.7278480 -0.9606800 -1.5291179
H -2.2468910 0.4912070 -1.7706630
H -1.7788620 1.2509130 1.0088770
H 2.5490000 -0.9263620 -0.3608590
H 0.8328680 -2.4293680 -1.1610680
H -1.3915310 -1.7706090 -1.8295350
H 0.5149050 -0.5602450 1.9521370
H -1.8245940 -0.5737050 1.2968830
H 1.4537570 0.5338690 -0.6407560
H -0.6055760 1.1376930 -1.2247540
C 0.8806590 1.6159980 1.6813210
H 0.6416750 2.2336400 2.5554130
H 1.9483380 1.3806430 1.7308379
H 0.7148520 2.2386489 0.7933150
