19
 comment:c
C -1.2177820 0.2854130 -1.4623100
C -1.2398270 0.3393570 1.2619860
C 0.0409120 0.3584120 1.6181300
C 1.5716420 -0.5341790 -0.6539220
C 0.6248480 -1.3543690 -1.1178230
C -0.7287280 -0.9563680 -1.5163240
H -2.2527010 0.4982220 -1.7158570
H -1.7728200 1.2489630 0.9879980
H 2.5370569 -0.9124430 -0.3284290
H 0.8373100 -2.4221139 -1.1580280
H -1.3956530 -1.7643660 -1.8144610
H 0.5202880 -0.5725540 1.9125839
H -1.8178850 -0.5792990 1.2477120
H 1.4390830 0.5420350 -0.6190610
H -0.6018140 1.1398960 -1.1974961
C 0.8819870 1.6086580 1.6704470
H 0.6051750 2.2341321 2.5274980
H 1.9474260 1.3775330 1.7655610
H 0.7520310 2.2237270 0.7709970
