19
 comment:c
C -1.2148430 0.2794150 -1.5153670
C -1.2507401 0.3493500 1.3186769
C 0.0315500 0.3737350 1.6671280
C 1.5871800 -0.5477410 -0.6891180
C 0.6260260 -1.3636100 -1.1287160
C -0.7272030 -0.9631610 -1.5362110
H -2.2435610 0.4877420 -1.7962180
H -1.7811890 1.2520601 1.0180960
H 2.5538709 -0.9326360 -0.3755860
H 0.8307090 -2.4332039 -1.1621211
H -1.3895260 -1.7738380 -1.8377190
H 0.5116240 -0.5534180 1.9745160
H -1.8283170 -0.5701590 1.3223979
H 1.4602550 0.5300460 -0.6526090
H -0.6066090 1.1360810 -1.2380280
C 0.8798830 1.6197200 1.6869770
H 0.6629600 2.2310410 2.5712731
H 1.9480720 1.3822941 1.7096350
H 0.6934820 2.2484000 0.8074560
