19
 comment:c
C -1.2180910 0.2869570 -1.4433440
C -1.2358930 0.3364030 1.2422290
C 0.0441330 0.3535810 1.6020510
C 1.5655240 -0.5294100 -0.6423230
C 0.6243990 -1.3516591 -1.1148810
C -0.7289340 -0.9545170 -1.5105870
H -2.2550530 0.5017000 -1.6867549
H -1.7692630 1.2482340 0.9766680
H 2.5300410 -0.9048970 -0.3109320
H 0.8393970 -2.4188299 -1.1558040
H -1.3978020 -1.7613280 -1.8074070
H 0.5222490 -0.5780270 1.8956890
H -1.8150440 -0.5813260 1.2245120
H 1.4313200 0.5463660 -0.6102550
H -0.5989720 1.1406170 -1.1841249
C 0.8824810 1.6051019 1.6653440
H 0.5891390 2.2326081 2.5153141
H 1.9464160 1.3760370 1.7800670
H 0.7683270 2.2181330 0.7622210
