19
 comment:c
C -1.2171180 0.2836350 -1.4806060
C -1.2436420 0.3425090 1.2813160
C 0.0377200 0.3633950 1.6343600
C 1.5773330 -0.5388590 -0.6656740
C 0.6252720 -1.3572870 -1.1211280
C -0.7283590 -0.9584190 -1.5225000
H -2.2499509 0.4947080 -1.7438771
H -1.7760540 1.2498670 0.9987910
H 2.5433841 -0.9196200 -0.3450870
H 0.8350970 -2.4256480 -1.1597490
H -1.3935590 -1.7674570 -1.8218260
H 0.5177610 -0.5665980 1.9315950
H -1.8210940 -0.5767530 1.2719040
H 1.4466530 0.5378650 -0.6295280
H -0.6039930 1.1389450 -1.2111560
C 0.8813700 1.6123060 1.6757970
H 0.6225560 2.2345531 2.5408590
H 1.9480890 1.3790801 1.7493050
H 0.7342720 2.2305450 0.7813160
