19
 comment:c
C -1.1993181 0.2553600 -1.6296450
C -1.2692050 0.3795770 1.4402080
C 0.0107730 0.4194510 1.7949510
C 1.6059999 -0.5761100 -0.7710830
C 0.6277440 -1.3927960 -1.1661510
C -0.7186570 -0.9890060 -1.6048290
H -2.2133191 0.4613420 -1.9608001
H -1.7847180 1.2603450 1.0599630
H 2.5696490 -0.9635360 -0.4517960
H 0.8164630 -2.4658821 -1.1616400
H -1.3724850 -1.8015740 -1.9197830
H 0.4828190 -0.4867560 2.1737421
H -1.8540020 -0.5335840 1.5060350
H 1.4888350 0.5047160 -0.7647030
H -0.6032040 1.1127770 -1.3270010
C 0.8727360 1.6501340 1.7393110
H 0.9294020 2.1361830 2.7214780
H 1.8995250 1.4092280 1.4432679
H 0.4740000 2.3841879 1.0295570
