19
 comment:c
C -1.2013340 0.2589510 -1.6171710
C -1.2677100 0.3755700 1.4274110
C 0.0131210 0.4132210 1.7792590
C 1.6046470 -0.5728030 -0.7609390
C 0.6278340 -1.3886909 -1.1615520
C -0.7200140 -0.9852680 -1.5951340
H -2.2173290 0.4647130 -1.9423320
H -1.7850510 1.2590350 1.0558990
H 2.5693150 -0.9607930 -0.4453700
H 0.8189290 -2.4613690 -1.1644510
H -1.3751791 -1.7979900 -1.9068880
H 0.4863670 -0.4958100 2.1493080
H -1.8518360 -0.5383930 1.4872390
H 1.4861341 0.5077020 -0.7472650
H -0.6035080 1.1166780 -1.3189130
C 0.8737340 1.6459030 1.7312959
H 0.8908860 2.1522720 2.7045970
H 1.9115720 1.4034110 1.4789450
H 0.5002320 2.3647490 0.9926930
