19
 comment:c
C -1.1974840 0.2515370 -1.6416140
C -1.2704940 0.3837370 1.4524820
C 0.0084690 0.4258970 1.8106550
C 1.6073030 -0.5795460 -0.7814420
C 0.6275240 -1.3970500 -1.1706790
C -0.7172170 -0.9928950 -1.6149631
H -2.2092960 0.4578620 -1.9791540
H -1.7844470 1.2620651 1.0646390
H 2.5697150 -0.9663750 -0.4578020
H 0.8136160 -2.4705210 -1.1579241
H -1.3693280 -1.8051831 -1.9341780
H 0.4796570 -0.4779180 2.1965210
H -1.8556360 -0.5288920 1.5229050
H 1.4921530 0.5015870 -0.7840330
H -0.6035070 1.1084440 -1.3333130
C 0.8717340 1.6546440 1.7480100
H 0.9675910 2.1200831 2.7371349
H 1.8858891 1.4161630 1.4090010
H 0.4493950 2.4035499 1.0682420
