19
 comment:c
C -1.1945651 0.2432930 -1.6641030
C -1.2728601 0.3926230 1.4772810
C 0.0046360 0.4386250 1.8402920
C 1.6105090 -0.5868970 -0.8038080
C 0.6260900 -1.4057090 -1.1777920
C -0.7138070 -1.0008550 -1.6372310
H -2.2006929 0.4507750 -2.0174880
H -1.7852980 1.2676880 1.0802360
H 2.5685310 -0.9730800 -0.4667790
H 0.8043010 -2.4799690 -1.1413360
H -1.3603190 -1.8121380 -1.9701320
H 0.4758770 -0.4622590 2.2334459
H -1.8575940 -0.5199400 1.5523781
H 1.5034190 0.4948390 -0.8331580
H -0.6072210 1.0982240 -1.3380671
C 0.8694230 1.6646110 1.7671040
H 1.0385940 2.0888350 2.7648661
H 1.8554389 1.4342350 1.3480010
H 0.4056350 2.4412060 1.1484820
