19
 comment:c
C -1.1922359 0.2249390 -1.6989690
C -1.2784600 0.4118800 1.5287950
C 0.0012420 0.4605410 1.8838290
C 1.6184040 -0.6023120 -0.8528960
C 0.6179190 -1.4221200 -1.1783370
C -0.7018450 -1.0155960 -1.6924480
H -2.1763401 0.4391820 -2.1061950
H -1.7968600 1.2885200 1.1430080
H 2.5591121 -0.9844990 -0.4663150
H 0.7672280 -2.4951000 -1.0613919
H -1.3204790 -1.8203310 -2.0885820
H 0.4801880 -0.4426930 2.2625899
H -1.8579350 -0.5045250 1.5980420
H 1.5409640 0.4760340 -0.9734050
H -0.6362220 1.0677021 -1.2956150
C 0.8638850 1.6867000 1.8090020
H 1.1452030 2.0347061 2.8107941
H 1.7966419 1.4821920 1.2700310
H 0.3453510 2.5069671 1.3004270
