19
 comment:c
C -1.1938291 0.1850580 -1.7441750
C -1.3088560 0.4610560 1.6554310
C -0.0056140 0.4841010 1.9154530
C 1.6393280 -0.6294320 -0.9377680
C 0.5997130 -1.4358360 -1.1543580
C -0.6582370 -1.0344120 -1.8076251
H -2.1166050 0.4259350 -2.2649219
H -1.8518820 1.3662810 1.3870020
H 2.5359399 -0.9807580 -0.4341900
H 0.6695350 -2.4796841 -0.8473950
H -1.1789330 -1.8133090 -2.3650179
H 0.4985790 -0.4472500 2.1746020
H -1.8834150 -0.4604590 1.6906130
H 1.6344740 0.4057380 -1.2732810
H -0.7365120 0.9754300 -1.1539150
C 0.8568830 1.7108260 1.8655820
H 1.3230850 1.9097559 2.8382051
H 1.6704820 1.5842960 1.1401920
H 0.2763750 2.5939939 1.5781310
