19
 comment:c
C -1.1947590 0.1946290 -1.7317441
C -1.2977740 0.4459770 1.6172450
C -0.0027540 0.4803230 1.9140900
C 1.6330630 -0.6231620 -0.9176840
C 0.6015570 -1.4337050 -1.1568580
C -0.6687100 -1.0296850 -1.7841030
H -2.1292291 0.4303150 -2.2335579
H -1.8344409 1.3407620 1.3047690
H 2.5375681 -0.9832780 -0.4349820
H 0.6877940 -2.4865799 -0.8877890
H -1.2095000 -1.8136560 -2.3143730
H 0.4947920 -0.4409060 2.2183809
H -1.8718610 -0.4752680 1.6644330
H 1.6145930 0.4245130 -1.2111340
H -0.7173770 0.9962310 -1.1735830
C 0.8583920 1.7076230 1.8535150
H 1.2732140 1.9518570 2.8390861
H 1.7089241 1.5538170 1.1777260
H 0.2911040 2.5745440 1.4981730
