17
 comment:c
C 1.0032550 1.0774930 0.1290640
C -0.8839780 0.3546240 -0.4953200
C -0.7664120 -1.1403220 -0.5510150
C 0.7498240 -1.6875530 0.1456570
C 1.8449000 -1.0582761 -0.6022020
C 1.9399080 0.2876160 -0.6351930
H -1.5325780 -1.6444710 0.0441360
H 0.7677100 -2.7799640 0.1206070
H 2.4261630 -1.6627851 -1.2955840
H -0.7942800 -1.5190420 -1.5750450
H -0.9984440 0.8744180 -1.4446861
H 0.6763130 -1.3536980 1.1858180
H 0.8468880 0.8027190 1.1712450
H 2.5814159 0.7774520 -1.3650030
H 1.0160151 2.1574521 -0.0156400
C -1.6975350 0.9113750 0.5597750
N -2.2357800 1.3884410 1.4703770
