17
 comment:c
C 1.1262161 1.1112090 0.1584700
C -1.0072160 0.3057790 -0.5391120
C -0.8968920 -1.0897551 -0.6098590
C 0.8864720 -1.7270350 0.1944030
C 1.8414520 -1.0813160 -0.5861260
C 1.9350420 0.3145040 -0.6219110
H -1.4847590 -1.6827390 0.0863970
H 0.8168340 -2.8118241 0.1406820
H 2.3645871 -1.6535650 -1.3503860
H -0.7802670 -1.5348210 -1.5927420
H -0.9166070 0.9121800 -1.4323950
H 0.6256290 -1.3189030 1.1678990
H 0.7637740 0.7758460 1.1238310
H 2.5158739 0.7730980 -1.4202160
H 1.1050080 2.1883280 0.0117110
C -1.7027910 0.9084900 0.5591190
N -2.2307010 1.3914040 1.4733160
