17
 comment:c
C 1.4413370 1.1973550 0.2519650
C -1.3896590 0.2813610 -0.6735010
C -1.3532490 -1.0434411 -0.8109870
C 1.2874550 -1.8497660 0.3622260
C 1.9292390 -1.1233341 -0.5567040
C 1.9963040 0.3458730 -0.6145230
H -1.6780510 -1.7111430 -0.0183910
H 1.2887410 -2.9355569 0.3222380
H 2.4483731 -1.6477200 -1.3585110
H -0.9997220 -1.4966820 -1.7307889
H -1.0631040 0.9504840 -1.4630810
H 0.7616130 -1.3944230 1.1983930
H 0.8912060 0.8666380 1.1298610
H 2.5465209 0.7557000 -1.4609150
H 1.5375690 2.2716780 0.1225100
C -1.8370090 0.9055730 0.5412030
N -2.1903069 1.4147990 1.5202399
