17
 comment:c
C 0.8925660 1.0430890 0.0928480
C -0.7724320 0.3915370 -0.4535740
C -0.6985970 -1.1533080 -0.5171650
C 0.6854770 -1.6719310 0.1178680
C 1.8390170 -1.0543410 -0.6123140
C 1.9317110 0.2788130 -0.6422830
H -1.5280690 -1.6103690 0.0328050
H 0.7228120 -2.7650440 0.0910110
H 2.4786651 -1.6794070 -1.2318100
H -0.7630290 -1.4958431 -1.5545900
H -0.9855360 0.8513490 -1.4219490
H 0.6819940 -1.3761719 1.1753510
H 0.8708970 0.8261740 1.1655910
H 2.6370399 0.7915040 -1.2927361
H 0.9234080 2.1248779 -0.0549990
C -1.6841390 0.9142820 0.5643310
N -2.2424250 1.3846350 1.4653200
