17
 comment:c
C 1.1713250 1.1256260 0.1702430
C -1.0551150 0.2912270 -0.5573120
C -0.9594130 -1.0703011 -0.6370210
C 0.9496630 -1.7480561 0.2187750
C 1.8403010 -1.0938510 -0.5813970
C 1.9335140 0.3272720 -0.6184840
H -1.4608470 -1.6918629 0.0986000
H 0.8447990 -2.8280039 0.1509010
H 2.3501141 -1.6540730 -1.3635410
H -0.7600520 -1.5355530 -1.5948451
H -0.8804620 0.9220750 -1.4200860
H 0.6017580 -1.3102970 1.1491170
H 0.7375790 0.7742820 1.0994290
H 2.5021000 0.7746120 -1.4319280
H 1.1468750 2.2024300 0.0246450
C -1.7063071 0.9075880 0.5600250
N -2.2287431 1.3930039 1.4750670
