17
 comment:c
C 1.0600290 1.0931890 0.1436670
C -0.9409500 0.3327780 -0.5153240
C -0.8192060 -1.1208330 -0.5757110
C 0.8047560 -1.7030180 0.1659350
C 1.8449121 -1.0655580 -0.5952230
C 1.9388241 0.2970460 -0.6294810
H -1.5198849 -1.6629370 0.0604840
H 0.7906790 -2.7933791 0.1319810
H 2.3967710 -1.6563250 -1.3239110
H -0.7985070 -1.5275480 -1.5860300
H -0.9709520 0.8929600 -1.4448110
H 0.6609680 -1.3382360 1.1847500
H 0.8131430 0.7885500 1.1567360
H 2.5486679 0.7736020 -1.3946530
H 1.0572760 2.1718030 -0.0015410
C -1.7004520 0.9100370 0.5587660
N -2.2332289 1.3898280 1.4718630
