17
 comment:c
C 0.7752800 1.0397090 -0.0092570
C -0.6228140 0.4552970 -0.3562200
C -0.6430530 -1.0985850 -0.4455730
C 0.6618390 -1.7371759 0.0559430
C 1.8425000 -1.0763900 -0.6058810
C 1.8814380 0.2535810 -0.6606490
H -1.4991111 -1.4984900 0.1064550
H 0.6411070 -2.8137200 -0.1400250
H 2.6306560 -1.6866111 -1.0409410
H -0.7803170 -1.3793060 -1.4944390
H -0.9242840 0.8617120 -1.3278090
H 0.7309770 -1.6188900 1.1473280
H 0.9036620 1.0030160 1.0813130
H 2.7031441 0.7846790 -1.1349900
H 0.8039420 2.0972221 -0.2874090
C -1.5987830 0.9508590 0.6252680
N -2.3428731 1.3451400 1.4190550
