17
 comment:c
C 1.1860080 1.1309530 0.1746480
C -1.0715350 0.2879970 -0.5636650
C -0.9807390 -1.0655431 -0.6464340
C 0.9704540 -1.7556900 0.2275930
C 1.8407820 -1.0974290 -0.5804440
C 1.9335730 0.3307640 -0.6179590
H -1.4568640 -1.6939840 0.0997130
H 0.8584570 -2.8344941 0.1563920
H 2.3478270 -1.6542740 -1.3668320
H -0.7550320 -1.5347670 -1.5960580
H -0.8719250 0.9247490 -1.4165810
H 0.5972510 -1.3097970 1.1438130
H 0.7325360 0.7760800 1.0930520
H 2.4999471 0.7750560 -1.4346410
H 1.1639000 2.2078650 0.0301200
C -1.7083690 0.9073630 0.5602420
N -2.2279539 1.3937351 1.4760320
