17
 comment:c
C 1.5435160 1.2044830 0.2774330
C -1.5368440 0.2793200 -0.7210170
C -1.6078750 -1.0381490 -0.9037110
C 1.3641260 -1.8416270 0.3789980
C 2.0957711 -1.1151400 -0.4682740
C 2.0242889 0.3481810 -0.6263540
H -1.9350131 -1.7083360 -0.1141710
H 1.4908590 -2.9179471 0.4544490
H 2.8066101 -1.6275260 -1.1162840
H -1.3344290 -1.4815590 -1.8556300
H -1.2009400 0.9508020 -1.5053740
H 0.6230570 -1.3875210 1.0332960
H 1.1770051 0.8767640 1.2479670
H 2.4156830 0.7428490 -1.5640910
H 1.5133340 2.2731569 0.0837540
C -1.8680650 0.8934590 0.5365950
N -2.1265581 1.3958650 1.5481030
