17
 comment:c
C 1.0418820 1.0883100 0.1393000
C -0.9228340 0.3400140 -0.5089900
C -0.8009460 -1.1280150 -0.5673290
C 0.7855700 -1.6975840 0.1590720
C 1.8452580 -1.0626360 -0.5975900
C 1.9394881 0.2934740 -0.6314590
H -1.5257680 -1.6569390 0.0544100
H 0.7836470 -2.7888291 0.1288370
H 2.4062369 -1.6580260 -1.3153490
H -0.7989840 -1.5249760 -1.5828561
H -0.9821970 0.8869830 -1.4458750
H 0.6674210 -1.3435040 1.1861640
H 0.8254270 0.7930480 1.1629250
H 2.5590129 0.7745050 -1.3858870
H 1.0444840 2.1673701 -0.0056220
C -1.6997139 0.9104760 0.5589680
N -2.2339871 1.3894050 1.4714390
