17
 comment:c
C 1.0943151 1.1022850 0.1513890
C -0.9750710 0.3186540 -0.5273760
C -0.8571520 -1.1053210 -0.5926500
C 0.8448400 -1.7145050 0.1798560
C 1.8434030 -1.0728160 -0.5905000
C 1.9369880 0.3053480 -0.6255170
H -1.5039490 -1.6738640 0.0735670
H 0.8034320 -2.8024430 0.1367670
H 2.3793409 -1.6542480 -1.3385780
H -0.7920610 -1.5318650 -1.5905170
H -0.9446200 0.9036070 -1.4398600
H 0.6445500 -1.3278410 1.1783680
H 0.7876030 0.7807450 1.1412650
H 2.5303609 0.7728150 -1.4091990
H 1.0811890 2.1800780 0.0054540
C -1.7016000 0.9092050 0.5587380
N -2.2319050 1.3906161 1.4725920
