17
 comment:c
C 1.5452000 1.2073780 0.2818960
C -1.5403210 0.2766250 -0.7261270
C -1.6292200 -1.0389030 -0.9145850
C 1.3662670 -1.8388990 0.3823710
C 2.1023791 -1.1108460 -0.4594990
C 2.0156331 0.3505880 -0.6267520
H -1.9626040 -1.7083060 -0.1269970
H 1.5032001 -2.9131920 0.4682950
H 2.8273871 -1.6193460 -1.0948530
H -1.3645639 -1.4814590 -1.8693990
H -1.1977940 0.9472900 -1.5083230
H 0.6100870 -1.3871810 1.0208740
H 1.2028590 0.8805410 1.2614930
H 2.3859320 0.7427520 -1.5741680
H 1.4999640 2.2746730 0.0834490
C -1.8600920 0.8894260 0.5351400
N -2.1099210 1.3906280 1.5494070
