17
 comment:c
C 1.5178421 1.1988050 0.2646460
C -1.5095980 0.2844950 -0.7056780
C -1.5137370 -1.0383160 -0.8630390
C 1.3626840 -1.8502491 0.3826620
C 2.0241599 -1.1262110 -0.5231090
C 2.0520620 0.3447850 -0.6114550
H -1.8166810 -1.7087810 -0.0641700
H 1.4095840 -2.9356179 0.3777990
H 2.6027009 -1.6518130 -1.2822670
H -1.2089300 -1.4860020 -1.8032390
H -1.1989100 0.9566730 -1.4997090
H 0.7668610 -1.3913510 1.1687950
H 1.0069890 0.8698190 1.1670780
H 2.5652299 0.7510010 -1.4826280
H 1.5866590 2.2725790 0.1150720
C -1.8818190 0.9039010 0.5374380
N -2.1693339 1.4104620 1.5390580
