17
 comment:c
C 0.7529600 1.0060821 0.0310410
C -0.6392610 0.4339160 -0.3910130
C -0.6444510 -1.1193770 -0.4812040
C 0.6612310 -1.6985940 0.0891970
C 1.8332410 -1.0618750 -0.6125410
C 1.8729560 0.2688510 -0.6520950
H -1.5117310 -1.5317430 0.0437580
H 0.6672920 -2.7880900 -0.0080000
H 2.5900149 -1.6811870 -1.0881380
H -0.7311360 -1.4151551 -1.5312880
H -0.9020880 0.8551860 -1.3669569
H 0.7065100 -1.4779520 1.1658870
H 0.8481750 0.8849770 1.1187850
H 2.6647589 0.8197240 -1.1535090
H 0.7772610 2.0817759 -0.1636890
C -1.6165390 0.9330910 0.5879430
N -2.2702651 1.3668860 1.4390100
