17
 comment:c
C 1.2443120 1.1536530 0.1935180
C -1.1389210 0.2812950 -0.5898780
C -1.0654100 -1.0545460 -0.6850070
C 1.0501460 -1.7868119 0.2638340
C 1.8470590 -1.1079320 -0.5782560
C 1.9366890 0.3402730 -0.6178680
H -1.4698750 -1.6998580 0.0882970
H 0.9391290 -2.8652420 0.1898670
H 2.3517129 -1.6536040 -1.3742369
H -0.7567890 -1.5282550 -1.6083660
H -0.8636590 0.9328930 -1.4101940
H 0.6020230 -1.3215730 1.1358260
H 0.7323750 0.7955540 1.0801100
H 2.5022650 0.7743100 -1.4408590
H 1.2493290 2.2315431 0.0560250
C -1.7232950 0.9068800 0.5594240
N -2.2234280 1.3978651 1.4825330
