17
 comment:c
C 1.1105560 1.1067030 0.1549580
C -0.9913300 0.3119760 -0.5332520
C -0.8767750 -1.0974240 -0.6012030
C 0.8654980 -1.7205940 0.1870030
C 1.8424240 -1.0769900 -0.5882350
C 1.9359810 0.3098960 -0.6236380
H -1.4945500 -1.6785890 0.0801220
H 0.8097780 -2.8070240 0.1387450
H 2.3715789 -1.6537670 -1.3448091
H -0.7866140 -1.5335330 -1.5918620
H -0.9305380 0.9081670 -1.4363110
H 0.6351720 -1.3230220 1.1735260
H 0.7752460 0.7777800 1.1325949
H 2.5225649 0.7728510 -1.4151400
H 1.0929160 2.1841381 0.0086340
C -1.7021540 0.9088270 0.5588890
N -2.2312989 1.3910040 1.4729420
