17
 comment:c
C 1.5356890 1.2008851 0.2704380
C -1.5292960 0.2827540 -0.7135260
C -1.5686510 -1.0376559 -0.8849170
C 1.3626220 -1.8457690 0.3778360
C 2.0726590 -1.1216600 -0.4899640
C 2.0401499 0.3458270 -0.6218050
H -1.8826760 -1.7085910 -0.0907140
H 1.4614180 -2.9266989 0.4229640
H 2.7384989 -1.6418470 -1.1780620
H -1.2821360 -1.4827460 -1.8321530
H -1.2073120 0.9551620 -1.5028930
H 0.6693280 -1.3879340 1.0801880
H 1.1107060 0.8718750 1.2163490
H 2.4820969 0.7463440 -1.5339860
H 1.5446740 2.2724760 0.0916910
C -1.8781750 0.8991920 0.5380590
N -2.1494241 1.4034580 1.5453190
