17
 comment:c
C 0.5668200 1.4963400 0.5008740
C -1.5975020 0.6807480 -0.2062890
C -1.4921319 -0.7021180 -0.2799010
C 0.3330600 -1.3532650 0.5409790
C 1.2661070 -0.7050970 -0.2455090
C 1.3596849 0.6994170 -0.2816630
H -2.0494881 -1.3059750 0.4309730
H 0.2512750 -2.4364419 0.4817960
H 1.7839150 -1.2731980 -1.0164829
H -1.3480240 -1.1549480 -1.2547570
H -1.4778450 1.2961690 -1.0896310
H 0.0417600 -0.9358720 1.5008700
H 0.1794110 1.1561490 1.4545240
H 1.9362860 1.1538711 -1.0854250
H 0.5435380 2.5731950 0.3538550
C -2.2782209 1.2886710 0.8982050
N -2.8046470 1.7723531 1.8125830
