17
 comment:c
C 1.5310490 1.2000060 0.2680140
C -1.5251890 0.2836140 -0.7109300
C -1.5517800 -1.0377930 -0.8773030
C 1.3638270 -1.8473870 0.3795840
C 2.0577991 -1.1238101 -0.5016980
C 2.0470481 0.3454220 -0.6181800
H -1.8603530 -1.7086869 -0.0809410
H 1.4451760 -2.9303780 0.4066240
H 2.6941760 -1.6470259 -1.2148900
H -1.2599620 -1.4837730 -1.8224770
H -1.2088749 0.9560810 -1.5025280
H 0.7034070 -1.3885710 1.1123010
H 1.0741670 0.8706510 1.1988220
H 2.5154729 0.7484350 -1.5158100
H 1.5618840 2.2727320 0.0990260
C -1.8811760 0.9010960 0.5380550
N -2.1572671 1.4061550 1.5436130
