17
 comment:c
C 0.8449480 1.0271300 0.0750130
C -0.7254150 0.4060420 -0.4345110
C -0.6801050 -1.1502120 -0.5073540
C 0.6717700 -1.6713860 0.1101790
C 1.8360910 -1.0547780 -0.6153920
C 1.9227290 0.2765390 -0.6443230
H -1.5235680 -1.5930040 0.0328420
H 0.7070600 -2.7643540 0.0768880
H 2.5014911 -1.6853440 -1.2010610
H -0.7504990 -1.4805560 -1.5485460
H -0.9598790 0.8492060 -1.4070450
H 0.6835130 -1.3868721 1.1713350
H 0.8672670 0.8354040 1.1543950
H 2.6536040 0.7998700 -1.2567670
H 0.8785440 2.1090441 -0.0772390
C -1.6736230 0.9164190 0.5673840
N -2.2462111 1.3820770 1.4616170
