17
 comment:c
C 1.3749660 1.1920609 0.2335970
C -1.2973020 0.2791880 -0.6454270
C -1.2474940 -1.0472800 -0.7687580
C 1.2090180 -1.8386140 0.3323570
C 1.8865080 -1.1192440 -0.5677070
C 1.9640480 0.3464850 -0.6171480
H -1.5953701 -1.7093860 0.0186110
H 1.1800960 -2.9236169 0.2805380
H 2.4031601 -1.6471620 -1.3686550
H -0.8798360 -1.5078120 -1.6786259
H -0.9629830 0.9439110 -1.4346250
H 0.6939410 -1.3799289 1.1726069
H 0.8156180 0.8556920 1.1026551
H 2.5301919 0.7607720 -1.4505939
H 1.4600830 2.2677159 0.1067390
C -1.7932680 0.9058710 0.5476560
N -2.2028570 1.4105600 1.5069520
