16
 comment:c
C -1.2136060 0.4105350 -0.8362700
C -1.1314290 0.0933130 1.2640550
C 0.2273820 0.0891900 1.6813190
C 1.4761360 0.4024520 -0.0104650
C 1.0113000 -0.5378130 -0.9476350
C -0.3080750 -0.5337860 -1.3527170
H -2.2642469 0.3279110 -1.1105880
H -1.7434090 0.9553220 1.5218620
H 0.5945040 0.9485570 2.2386711
H 2.4993019 0.3139980 0.3518640
H 1.6296110 -1.4052750 -1.1730540
H -0.6986310 -1.3983420 -1.8871090
H 0.6699560 -0.8554960 1.9843240
H -1.6724180 -0.8487810 1.2653400
H 1.1316700 1.4310430 -0.0856970
H -0.8810790 1.4372860 -0.7038500
