16
 comment:c
C -1.2181340 0.4042690 -0.7360170
C -1.1383981 0.1081670 1.1603889
C 0.2915370 0.1039340 1.5992450
C 1.4234860 0.3963520 0.0750290
C 0.9956640 -0.5484530 -0.9511880
C -0.2932420 -0.5445220 -1.3469400
H -2.2565131 0.3228820 -1.0646729
H -1.7320940 0.9350100 1.5569630
H 0.5648640 0.9283690 2.2619190
H 2.4670041 0.3088230 0.3853840
H 1.6519340 -1.3731050 -1.2238100
H -0.6881380 -1.3663960 -1.9415860
H 0.6452320 -0.8467350 2.0020211
H -1.6613359 -0.8404060 1.2935110
H 1.1739700 1.4405010 -0.1305890
H -0.8902110 1.4466220 -0.7639360
