16
 comment:c
C -1.2239710 0.3801590 -0.5847490
C -1.1211860 0.1359480 0.9961690
C 0.3697870 0.1315190 1.4537600
C 1.3433371 0.3725570 0.2035010
C 0.9813530 -0.5561950 -0.9298960
C -0.2935660 -0.5524880 -1.3213040
H -2.2585299 0.2819650 -0.9294790
H -1.6881690 0.9185120 1.5144790
H 0.5526220 0.9116630 2.2024291
H 2.3925779 0.2679940 0.4982700
H 1.7095259 -1.2644820 -1.3203400
H -0.6804060 -1.2575570 -2.0544939
H 0.6301970 -0.8243310 1.9220440
H -1.6048210 -0.8177500 1.2355680
H 1.2120820 1.4156810 -0.1189570
H -0.9289470 1.4220420 -0.7762880
