16
 comment:c
C -1.2341740 0.3692580 -0.5628640
C -1.1060090 0.1431980 0.9631520
C 0.3757540 0.1387130 1.4180580
C 1.3395820 0.3615960 0.2273500
C 0.9762800 -0.5537690 -0.9148410
C -0.2977680 -0.5499260 -1.3060730
H -2.2733190 0.2421910 -0.8827300
H -1.6721350 0.9184490 1.4924901
H 0.5514370 0.9115430 2.1754501
H 2.3787041 0.2289500 0.5448810
H 1.7243820 -1.2061141 -1.3602570
H -0.6703410 -1.1989940 -2.0956931
H 0.6208940 -0.8203730 1.8875270
H -1.5780760 -0.8136550 1.2119610
H 1.2469950 1.4068450 -0.1039840
H -0.9675130 1.4138480 -0.7833560
