16
 comment:c
C -1.2205960 0.3946550 -0.6567200
C -1.1357670 0.1217840 1.0770780
C 0.3363340 0.1174700 1.5287670
C 1.3809180 0.3868750 0.1419910
C 0.9883430 -0.5540370 -0.9455460
C -0.2904740 -0.5502360 -1.3381450
H -2.2534180 0.3098090 -1.0080760
H -1.7132860 0.9232720 1.5505960
H 0.5532660 0.9165370 2.2461109
H 2.4324601 0.2955250 0.4305680
H 1.6780560 -1.3314210 -1.2691880
H -0.6836640 -1.3247050 -1.9942120
H 0.6354530 -0.8352650 1.9770510
H -1.6394600 -0.8289740 1.2782770
H 1.1949840 1.4316190 -0.1365920
H -0.9040110 1.4376889 -0.7815900
