16
 comment:c
C -1.2194660 0.4000520 -0.6959600
C -1.1382620 0.1148300 1.1186340
C 0.3149710 0.1105670 1.5645610
C 1.4020420 0.3921990 0.1089100
C 0.9916900 -0.5516380 -0.9493880
C -0.2910240 -0.5477690 -1.3432200
H -2.2543609 0.3175730 -1.0389010
H -1.7235000 0.9283030 1.5578750
H 0.5574300 0.9216170 2.2578549
H 2.4506321 0.3033540 0.4055620
H 1.6642700 -1.3544000 -1.2462270
H -0.6854650 -1.3477250 -1.9672509
H 0.6391640 -0.8411670 1.9937370
H -1.6517071 -0.8349240 1.2900220
H 1.1859590 1.4373990 -0.1370270
H -0.8962460 1.4434540 -0.7763920
