16
 comment:c
C -1.2736371 0.3356160 -0.5629710
C -1.1041840 0.1615320 0.9598100
C 0.3758180 0.1551320 1.4143450
C 1.3723010 0.3263770 0.2500860
C 0.9782040 -0.5345780 -0.9217780
C -0.2955000 -0.5304510 -1.3128800
H -2.3075931 0.1181150 -0.8508630
H -1.6617841 0.9515500 1.4759060
H 0.5533400 0.9403380 2.1582201
H 2.3882861 0.1014240 0.5912630
H 1.7285340 -1.1399510 -1.4263310
H -0.6371140 -1.1323479 -2.1525421
H 0.5963680 -0.7958790 1.9116770
H -1.5744450 -0.7855120 1.2466850
H 1.3790359 1.3811220 -0.0643300
H -1.0957119 1.3895590 -0.8251740
