16
 comment:c
C -1.2178560 0.4323020 -1.0346680
C -1.1497149 0.0680570 1.4709920
C 0.1261340 0.0638900 1.8629950
C 1.5912890 0.4235680 -0.1722830
C 1.0470350 -0.5296090 -0.9435780
C -0.3400090 -0.5253250 -1.3693240
H -2.2754509 0.3399430 -1.2665120
H -1.7527510 0.9721770 1.4928780
H 0.6181790 0.9640730 2.2222109
H 2.5962760 0.3247200 0.2290740
H 1.6202550 -1.4335769 -1.1440310
H -0.7077600 -1.4262090 -1.8582751
H 0.6914010 -0.8577070 1.9502370
H -1.6722130 -0.8497540 1.2237890
H 1.1073960 1.3797470 -0.0096440
H -0.9025570 1.3857480 -0.6266590
