16
 comment:c
C -1.2123870 0.4180520 -0.9361280
C -1.1300460 0.0801850 1.3674350
C 0.1681180 0.0762180 1.7661880
C 1.5313540 0.4097820 -0.0939130
C 1.0322011 -0.5294110 -0.9409140
C -0.3292020 -0.5253180 -1.3588541
H -2.2723351 0.3290770 -1.1606970
H -1.7439440 0.9700290 1.4772290
H 0.6195900 0.9626580 2.2033989
H 2.5342219 0.3146640 0.3148530
H 1.6203630 -1.4236070 -1.1412940
H -0.7091480 -1.4165820 -1.8558010
H 0.6915670 -0.8563880 1.9453770
H -1.6687829 -0.8492740 1.2200910
H 1.0978640 1.4012440 -0.0287040
H -0.8842670 1.4075180 -0.6384960
