16
 comment:c
C -1.2131910 0.4206030 -0.9562340
C -1.1325450 0.0776310 1.3883179
C 0.1584410 0.0736640 1.7848459
C 1.5433220 0.4122250 -0.1100640
C 1.0358320 -0.5288610 -0.9406110
C -0.3323900 -0.5247450 -1.3605950
H -2.2736931 0.3303150 -1.1767660
H -1.7445281 0.9714180 1.4741040
H 0.6217310 0.9638990 2.2014670
H 2.5444241 0.3157350 0.3022330
H 1.6198460 -1.4262190 -1.1389530
H -0.7101280 -1.4191900 -1.8534880
H 0.6934610 -0.8563960 1.9413540
H -1.6682709 -0.8491300 1.2156010
H 1.0958930 1.3952990 -0.0208070
H -0.8868340 1.4015840 -0.6307570
