16
 comment:c
C -1.2189389 0.4351110 -1.0534821
C -1.1550710 0.0659250 1.4913750
C 0.1190820 0.0616730 1.8829050
C 1.6027580 0.4263010 -0.1872180
C 1.0492400 -0.5301340 -0.9452910
C -0.3408570 -0.5257890 -1.3720050
H -2.2746451 0.3429020 -1.2937540
H -1.7562881 0.9715860 1.5042160
H 0.6147850 0.9633000 2.2337511
H 2.6108990 0.3275130 0.2061310
H 1.6206630 -1.4347810 -1.1480941
H -0.7057880 -1.4272610 -1.8620991
H 0.6888340 -0.8583850 1.9582880
H -1.6747741 -0.8502240 1.2317500
H 1.1145200 1.3781379 -0.0112730
H -0.9075170 1.3839450 -0.6314470
