16
 comment:c
C -1.2184690 0.4507880 -1.1912680
C -1.2032920 0.0541580 1.6564850
C 0.0663780 0.0484660 2.0460410
C 1.6789629 0.4421660 -0.3003360
C 1.0662560 -0.5334290 -0.9761390
C -0.3368720 -0.5290330 -1.4073480
H -2.2528739 0.3594970 -1.5110880
H -1.7985140 0.9647230 1.6487110
H 0.5709580 0.9537790 2.3764601
H 2.7140980 0.3456770 0.0155650
H 1.6274660 -1.4397330 -1.2010990
H -0.6803750 -1.4325320 -1.9099470
H 0.6548690 -0.8640460 2.0644281
H -1.7086420 -0.8533130 1.3396710
H 1.1838330 1.3777159 -0.0571230
H -0.9414330 1.3846260 -0.7108820
