16
 comment:c
C -1.2195610 0.4495790 -1.1753700
C -1.1969310 0.0550350 1.6353830
C 0.0728790 0.0495600 2.0251269
C 1.6711870 0.4408480 -0.2868980
C 1.0638560 -0.5332140 -0.9701870
C -0.3383220 -0.5286870 -1.4011410
H -2.2564559 0.3586450 -1.4871600
H -1.7920901 0.9655610 1.6266040
H 0.5777750 0.9550570 2.3543839
H 2.7038081 0.3443340 0.0371740
H 1.6260490 -1.4394120 -1.1929060
H -0.6839620 -1.4317950 -1.9028850
H 0.6597570 -0.8637190 2.0490799
H -1.7037680 -0.8533690 1.3240620
H 1.1752940 1.3771009 -0.0488210
H -0.9387620 1.3839090 -0.6986210
