16
 comment:c
C -1.2170120 0.4517790 -1.2065800
C -1.2097189 0.0534710 1.6776290
C 0.0597980 0.0475300 2.0672140
C 1.6862060 0.4433500 -0.3136550
C 1.0687650 -0.5336610 -0.9826840
C -0.3351640 -0.5293720 -1.4142270
H -2.2491860 0.3602520 -1.5334200
H -1.8052760 0.9638930 1.6717920
H 0.5637770 0.9524720 2.3997099
H 2.7233570 0.3466630 -0.0045500
H 1.6289010 -1.4403380 -1.2089911
H -0.6767430 -1.4332319 -1.9175650
H 0.6498890 -0.8641770 2.0799129
H -1.7134380 -0.8529780 1.3549690
H 1.1922750 1.3788900 -0.0671950
H -0.9431230 1.3851620 -0.7230800
