16
 comment:c
C -1.2073760 0.4535880 -1.2615960
C -1.2359860 0.0533230 1.7632620
C 0.0333530 0.0459190 2.1528659
C 1.7089421 0.4465110 -0.3651050
C 1.0802790 -0.5353440 -1.0152040
C -0.3256980 -0.5311370 -1.4484580
H -2.2334440 0.3624640 -1.6070470
H -1.8349921 0.9615460 1.7735471
H 0.5330900 0.9474510 2.5009890
H 2.7508090 0.3501900 -0.0724430
H 1.6375600 -1.4434350 -1.2432730
H -0.6623070 -1.4354690 -1.9544690
H 0.6292360 -0.8624170 2.1423149
H -1.7329440 -0.8482950 1.4163820
H 1.2169000 1.3817080 -0.1112130
H -0.9410800 1.3856740 -0.7702080
