16
 comment:c
C -1.2011369 0.4525190 -1.2850910
C -1.2491330 0.0555550 1.8058550
C 0.0200070 0.0471580 2.1962061
C 1.7167439 0.4461500 -0.3880350
C 1.0873441 -0.5362700 -1.0361770
C -0.3195440 -0.5325410 -1.4693340
H -2.2256551 0.3623000 -1.6352450
H -1.8514090 0.9613680 1.8295510
H 0.5155000 0.9453370 2.5587940
H 2.7602701 0.3517780 -0.1008370
H 1.6457421 -1.4425271 -1.2688020
H -0.6544660 -1.4358370 -1.9783220
H 0.6197590 -0.8584630 2.1706779
H -1.7414560 -0.8423150 1.4426709
H 1.2222880 1.3782820 -0.1269290
H -0.9368920 1.3829410 -0.7891000
