16
 comment:c
C -1.1845810 0.4048940 -1.3479080
C -1.3125830 0.0915780 2.0117249
C -0.0392690 0.0910510 2.3896890
C 1.7393140 0.4155440 -0.4628530
C 1.1290480 -0.5426670 -1.1625561
C -0.2719030 -0.5287030 -1.6231400
H -2.1954100 0.3333940 -1.7395250
H -1.9955130 0.8883570 2.2988751
H 0.3766230 0.8878300 3.0027950
H 2.7792890 0.3168930 -0.1645930
H 1.7011660 -1.4292880 -1.4342850
H -0.5667040 -1.3721330 -2.2467821
H 0.6412330 -0.7043440 2.0977509
H -1.7237480 -0.7037950 1.3955790
H 1.2310890 1.3290800 -0.1636930
H -0.9626920 1.2672800 -0.7239830
