16
 comment:c
C -1.1847759 0.4109840 -1.3472580
C -1.3081011 0.0892100 1.9972039
C -0.0356470 0.0846360 2.3778920
C 1.7377220 0.4183370 -0.4572570
C 1.1269079 -0.5403800 -1.1558400
C -0.2765470 -0.5310290 -1.6082550
H -2.1985900 0.3336940 -1.7299640
H -1.9782100 0.9092180 2.2466581
H 0.3928660 0.9015400 2.9546959
H 2.7800851 0.3231460 -0.1663170
H 1.7006021 -1.4245760 -1.4321049
H -0.5778670 -1.3863651 -2.2123129
H 0.6325040 -0.7337000 2.1231019
H -1.7321980 -0.7264210 1.4175410
H 1.2276070 1.3286190 -0.1515720
H -0.9559180 1.2873880 -0.7457540
