16
 comment:c
C -1.1843640 0.3992270 -1.3479850
C -1.3163030 0.0932430 2.0234790
C -0.0433700 0.0968850 2.4028239
C 1.7415420 0.4138080 -0.4702220
C 1.1300480 -0.5463070 -1.1661550
C -0.2670820 -0.5252060 -1.6384161
H -2.1911271 0.3361510 -1.7513750
H -2.0121441 0.8658110 2.3438060
H 0.3587890 0.8726130 3.0510290
H 2.7776949 0.3098100 -0.1606450
H 1.6978149 -1.4392220 -1.4261940
H -0.5542580 -1.3540291 -2.2848041
H 0.6495180 -0.6748440 2.0784681
H -1.7135800 -0.6811960 1.3724840
H 1.2378740 1.3345701 -0.1856720
H -0.9705560 1.2441680 -0.6978630
