16
 comment:c
C -1.1864409 0.4292670 -1.3384980
C -1.2920020 0.0778200 1.9432460
C -0.0242680 0.0658710 2.3387790
C 1.7346240 0.4302180 -0.4444930
C 1.1163909 -0.5377400 -1.1236660
C -0.2903460 -0.5334380 -1.5637550
H -2.2051899 0.3447480 -1.7062690
H -1.9289180 0.9483570 2.0854919
H 0.4338160 0.9262080 2.8221409
H 2.7796209 0.3383530 -0.1621230
H 1.6860900 -1.4275939 -1.3898640
H -0.6064680 -1.4123180 -2.1248901
H 0.6109110 -0.8036380 2.1923909
H -1.7461860 -0.7814130 1.4570740
H 1.2282650 1.3454410 -0.1477560
H -0.9420330 1.3315370 -0.7831220
