16
 comment:c
C -1.1840750 0.3842110 -1.3442030
C -1.3246630 0.0899490 2.0535240
C -0.0519970 0.1127750 2.4331551
C 1.7478800 0.4119110 -0.4948790
C 1.1247460 -0.5629590 -1.1589119
C -0.2504460 -0.5045640 -1.6884930
H -2.1714499 0.3654890 -1.7971179
H -2.0479491 0.8106630 2.4291949
H 0.3221490 0.8527970 3.1373551
H 2.7619030 0.2841640 -0.1262880
H 1.6622770 -1.4922020 -1.3462729
H -0.5045450 -1.2689620 -2.4223490
H 0.6678680 -0.6067530 2.0521851
H -1.6935390 -0.6490160 1.3466560
H 1.2742680 1.3713540 -0.3003750
H -1.0025300 1.1501950 -0.5940560
