16
 comment:c
C -1.1875430 0.4348170 -1.3345439
C -1.2861810 0.0733140 1.9248580
C -0.0187260 0.0613020 2.3211370
C 1.7328800 0.4340050 -0.4388150
C 1.1121620 -0.5373300 -1.1109231
C -0.2952270 -0.5340590 -1.5482060
H -2.2076449 0.3484300 -1.6981111
H -1.9157230 0.9527830 2.0428901
H 0.4465740 0.9302980 2.7815650
H 2.7782559 0.3426120 -0.1576910
H 1.6800220 -1.4299290 -1.3718070
H -0.6158450 -1.4197420 -2.0959201
H 0.6090540 -0.8172620 2.1991580
H -1.7476389 -0.7946390 1.4616550
H 1.2282960 1.3518400 -0.1472710
H -0.9383730 1.3446881 -0.7939360
