16
 comment:c
C -1.1536810 0.4000500 -1.3794709
C -1.3680381 -0.0055370 2.2014930
C -0.1018570 0.2410180 2.5180249
C 1.8001510 0.3759570 -0.6010690
C 1.1096320 -0.6149220 -1.1669180
C -0.2235140 -0.4678790 -1.7795891
H -2.1109040 0.4778220 -1.8877029
H -2.1940780 0.4090030 2.7752080
H 0.1644860 0.8694990 3.3650880
H 2.7746561 0.2049970 -0.1516560
H 1.5514060 -1.6106189 -1.2086610
H -0.4447520 -1.1360630 -2.6120291
H 0.7181730 -0.1744530 1.9371520
H -1.6284250 -0.6332720 1.3522140
H 1.4185780 1.3944319 -0.5794790
H -0.9955060 1.0476700 -0.5195800
