16
 comment:c
C -1.1689121 0.3863070 -1.3768270
C -1.3503540 0.0450590 2.1495161
C -0.0735850 0.1750820 2.4918740
C 1.7726490 0.3971650 -0.5587420
C 1.1095560 -0.5974860 -1.1501220
C -0.2270720 -0.4765910 -1.7606519
H -2.1275461 0.4393540 -1.8855890
H -2.1360741 0.6178450 2.6373360
H 0.2421080 0.8619080 3.2741320
H 2.7510650 0.2405860 -0.1127370
H 1.5788590 -1.5792230 -1.2148761
H -0.4415450 -1.1630410 -2.5798309
H 0.7074460 -0.3970510 1.9977380
H -1.6606230 -0.6410440 1.3649460
H 1.3639500 1.4039210 -0.5085110
H -1.0191571 1.0557110 -0.5325440
