16
 comment:c
C -1.1721710 0.3841310 -1.3728760
C -1.3456340 0.0555850 2.1336410
C -0.0684000 0.1605510 2.4827771
C 1.7672720 0.4017010 -0.5485710
C 1.1100720 -0.5930670 -1.1463100
C -0.2289930 -0.4791320 -1.7527430
H -2.1324749 0.4299880 -1.8791770
H -2.1184821 0.6654400 2.5965281
H 0.2604510 0.8621610 3.2462730
H 2.7478659 0.2484750 -0.1062520
H 1.5866280 -1.5707051 -1.2192870
H -0.4445270 -1.1721380 -2.5660710
H 0.7001230 -0.4482930 2.0136509
H -1.6691220 -0.6451940 1.3676749
H 1.3516361 1.4050390 -0.4884880
H -1.0219970 1.0614400 -0.5350930
