16
 comment:c
C -1.1782420 0.3813990 -1.3607351
C -1.3359900 0.0730160 2.0989561
C -0.0598130 0.1359560 2.4617989
C 1.7576470 0.4091460 -0.5268680
C 1.1138500 -0.5823370 -1.1445040
C -0.2355770 -0.4868340 -1.7308990
H -2.1461360 0.4066640 -1.8537960
H -2.0853240 0.7396750 2.5204489
H 0.2913570 0.8568750 3.1968710
H 2.7473891 0.2638740 -0.1027330
H 1.6108340 -1.5467850 -1.2488230
H -0.4605560 -1.2009259 -2.5230110
H 0.6857720 -0.5291570 2.0340459
H -1.6819040 -0.6469950 1.3613271
H 1.3226759 1.4012800 -0.4299230
H -1.0207980 1.0848449 -0.5463990
