16
 comment:c
C -1.1402400 0.4180600 -1.3712320
C -1.3826669 -0.0454920 2.2349200
C -0.1265280 0.2797480 2.5186391
C 1.8278530 0.3652460 -0.6415190
C 1.1098050 -0.6255640 -1.1721900
C -0.2254770 -0.4636350 -1.7765130
H -2.1004879 0.5081910 -1.8716540
H -2.2093871 0.2410070 2.8812661
H 0.1301670 0.8475660 3.4103270
H 2.8023670 0.1854470 -0.1955930
H 1.5280930 -1.6321170 -1.1890340
H -0.4620560 -1.1317900 -2.6047771
H 0.6937710 -0.0101350 1.8657570
H -1.6330000 -0.6127940 1.3411450
H 1.4697500 1.3924890 -0.6488370
H -0.9662220 1.0649951 -0.5137090
