16
 comment:c
C -1.1496060 0.4048850 -1.3772120
C -1.3725340 -0.0181820 2.2124360
C -0.1096360 0.2552980 2.5199020
C 1.8084400 0.3714250 -0.6127730
C 1.1097521 -0.6187810 -1.1697299
C -0.2236740 -0.4660840 -1.7804600
H -2.1074519 0.4875370 -1.8834980
H -2.2017679 0.3500090 2.8124709
H 0.1505870 0.8606780 3.3854251
H 2.7827051 0.1971060 -0.1641170
H 1.5442930 -1.6179110 -1.2051350
H -0.4488400 -1.1322650 -2.6134620
H 0.7133210 -0.1146920 1.9128730
H -1.6265730 -0.6228430 1.3446950
H 1.4340791 1.3927400 -0.5988100
H -0.9873040 1.0501360 -0.5162400
