16
 comment:c
C -1.1452121 0.4109070 -1.3748230
C -1.3773080 -0.0313850 2.2236061
C -0.1176870 0.2678210 2.5203099
C 1.8175091 0.3680410 -0.6260780
C 1.1097900 -0.6221950 -1.1714799
C -0.2243300 -0.4647020 -1.7795140
H -2.1040499 0.4974520 -1.8785690
H -2.2063911 0.2920380 2.8491380
H 0.1397020 0.8504480 3.4021699
H 2.7917631 0.1908300 -0.1785350
H 1.5366130 -1.6249141 -1.1986361
H -0.4545520 -1.1311100 -2.6109581
H 0.7049990 -0.0582730 1.8880390
H -1.6284380 -0.6136210 1.3397700
H 1.4508851 1.3922729 -0.6216660
H -0.9777260 1.0562650 -0.5148670
