48

C         -4.52840        0.40520       -1.92340
C         -3.88840        0.06580       -0.58000
C         -2.35840        0.06400       -0.67510
N         -1.77280       -0.28550        0.64310
C         -1.53780        0.93970        1.45230
C         -1.37150        0.64210        2.93960
C         -0.62990       -1.24840        0.54260
C         -0.72480       -2.33820        1.63560
C         -2.07020       -3.06390        1.60820
C          0.73120       -0.58020        0.50010
O          1.55190       -0.74290        1.44520
N          1.10450        0.20160       -0.64300
C          2.45870        0.62840       -0.84870
C          3.28390       -0.07580       -1.75270
C          2.75510       -1.26780       -2.50300
C          4.60870        0.34240       -1.95150
C          5.11260        1.44340       -1.25970
C          4.29900        2.14720       -0.37200
C          2.96660        1.75620       -0.16470
C          2.09460        2.55410        0.76550
H         -4.24020       -0.34550       -2.68980
H         -5.63400        0.39980       -1.82020
H         -4.20770        1.41450       -2.25880
H         -4.23690       -0.93930       -0.25660
H         -4.22700        0.80850        0.17270
H         -2.08270       -0.66380       -1.46840
H         -1.99600        1.05790       -1.02510
H         -2.41460        1.61830        1.36850
H         -0.66830        1.51580        1.07730
H         -1.50410        1.57880        3.52140
H         -0.35060        0.26540        3.15000
H         -2.13350       -0.09220        3.27650
H         -0.68860       -1.83010       -0.40370
H         -0.56320       -1.92220        2.64810
H          0.07570       -3.09150        1.46400
H         -2.25640       -3.49770        0.60280
H         -2.06310       -3.88670        2.35380
H         -2.89470       -2.36590        1.86530
H          0.44750        0.25340       -1.45310
H          3.55230       -1.76640       -3.09460
H          2.34110       -2.01040       -1.78850
H          1.95270       -0.94440       -3.19870
H          5.25590       -0.18580       -2.64080
H          6.13690        1.75640       -1.41660
H          4.70900        3.00470        0.14720
H          2.61030        3.47000        1.12470
H          1.17220        2.86970        0.23480
H          1.82320        1.94130        1.64950
