56

C          3.64140        2.13770       -0.13420
C          4.72330        1.58750        0.43500
C          4.97700        0.13770        0.51940
C          6.14630       -0.39480       -0.04300
C          6.41530       -1.76370        0.05850
C          5.52830       -2.60350        0.73830
C          4.37610       -2.07410        1.32650
C          4.10530       -0.70600        1.22790
C          2.59570        1.37800       -0.90920
N          1.25100        1.90870       -0.59780
C          0.74470        1.46420        0.71850
C          0.22160        0.01210        0.70120
N         -0.77590       -0.22660       -0.36870
C         -2.11580        0.36560       -0.07690
C         -2.70540       -0.16150        1.22270
C         -2.65610       -1.53200        1.54560
C         -3.21710       -1.99900        2.73780
C         -3.83570       -1.10810        3.61750
C         -3.89350        0.25240        3.30750
C         -3.33320        0.72510        2.11710
C         -3.12070        0.09990       -1.18780
C         -3.90250        1.15470       -1.69430
C         -4.83800        0.92070       -2.70650
C         -5.00450       -0.36600       -3.22320
C         -4.23490       -1.42160       -2.72950
C         -3.29860       -1.19360       -1.71680
C         -0.20550        0.18320       -1.67380
C          0.27170        1.64550       -1.67040
H          3.57950        3.21920       -0.15530
H          5.48630        2.24970        0.82560
H          6.84290        0.24720       -0.56840
H          7.31260       -2.17280       -0.38740
H          5.73830       -3.66240        0.81700
H          3.69720       -2.72200        1.86570
H          3.22490       -0.30330        1.71100
H          2.64450        0.28530       -0.74110
H          2.83420        1.53800       -1.98300
H          1.53820        1.55510        1.49140
H         -0.06720        2.14860        1.04250
H          1.06760       -0.69250        0.56330
H         -0.18970       -0.23110        1.70220
H         -2.00410        1.46600        0.02680
H         -2.16680       -2.23720        0.88780
H         -3.16940       -3.05260        2.98100
H         -4.26960       -1.47190        4.53990
H         -4.37450        0.94170        3.98940
H         -3.39400        1.78260        1.89160
H         -3.79200        2.15870       -1.30390
H         -5.43520        1.73790       -3.08970
H         -5.72880       -0.54480       -4.00730
H         -4.36140       -2.41750       -3.13410
H         -2.70080       -2.02180       -1.36280
H          0.65100       -0.48120       -1.91960
H         -0.93130        0.03860       -2.49980
H          0.70330        1.89340       -2.66470
H         -0.59640        2.32630       -1.54680
