30

C          6.19420        0.73620        0.19260
C          4.94720        0.39070       -0.54940
C          3.71320        0.11770        0.00060
C          2.91910       -0.13550       -1.10290
C          1.48630       -0.47830       -1.10610
O          0.89740       -0.62600       -2.21090
N          0.75910       -0.65130        0.12280
N         -0.62360       -0.91840        0.14880
C         -1.35540        0.31980       -0.13280
C         -2.82580        0.11750        0.11920
C         -3.57820       -0.71640       -0.72580
C         -4.94500       -0.90330       -0.49740
C         -5.57120       -0.25860        0.57260
C         -4.83170        0.57540        1.41540
C         -3.46440        0.76560        1.19080
N          3.65600       -0.01270       -2.22540
O          4.86340        0.30160       -1.85550
H          6.54750        1.73900       -0.12530
H          6.97850       -0.01600       -0.03240
H          6.00690        0.74820        1.28720
H          3.44430        0.11370        1.04810
H          1.27190       -0.66270        1.03110
H         -0.83640       -1.63490       -0.58430
H         -1.20670        0.63200       -1.18990
H         -0.96640        1.13590        0.51700
H         -3.10740       -1.21730       -1.56260
H         -5.51930       -1.54700       -1.15130
H         -6.62920       -0.40430        0.74790
H         -5.31810        1.07510        2.24320
H         -2.90610        1.41430        1.85430
