24

C         -3.59720       -0.47100       -0.39930
C         -2.14270       -0.10630       -0.68080
C         -1.37400        0.15520        0.61830
N          0.02790        0.49350        0.32340
C          0.39890        1.76990       -0.04900
O         -0.46610        2.68400       -0.13920
N          1.71350        2.06240       -0.32570
C          2.68540        1.10680       -0.24450
O          3.88740        1.38230       -0.50300
C          2.30500       -0.17090        0.12820
N          3.04230       -1.27840        0.26960
C          2.13870       -2.22180        0.63240
N          0.86610       -1.75020        0.72320
C          1.01000       -0.45040        0.40060
H         -4.12670       -0.65360       -1.35800
H         -4.10610        0.35920        0.13540
H         -3.65140       -1.39320        0.21760
H         -1.66000       -0.94130       -1.23370
H         -2.11610        0.80030       -1.32280
H         -1.85260        0.98210        1.18810
H         -1.43080       -0.74660        1.26720
H          1.97520        3.03530       -0.60570
H          4.07040       -1.39490        0.12940
H          2.40300       -3.25250        0.82830
