36

C         -1.18650        3.57700       -0.39540
O         -1.02900        2.16700       -0.25840
C         -0.56270        1.32500       -1.27600
O         -0.24650        1.79720       -2.40250
C         -0.40130       -0.15630       -1.02590
C         -1.62680       -0.74690       -0.33940
C         -2.41970       -1.69180       -1.02060
C         -3.54540       -2.25070       -0.40840
C         -3.89640       -1.87550        0.88920
C         -3.12290       -0.93950        1.57740
C         -1.99580       -0.37710        0.97100
C          0.92070       -0.51640       -0.28890
C          2.15800       -0.26040       -1.17920
C          3.43640       -0.68140       -0.44740
C          3.52400       -0.00940        0.92560
C          2.24000       -0.25400        1.73160
N          1.05340        0.20260        0.99340
H         -0.89810        3.93780       -1.40500
H         -2.24760        3.84320       -0.21170
H         -0.55360        4.08750        0.35920
H         -0.32790       -0.63240       -2.03050
H         -2.16870       -2.00030       -2.02770
H         -4.14630       -2.97610       -0.94170
H         -4.76860       -2.30920        1.36120
H         -3.39760       -0.64740        2.58280
H         -1.42360        0.34990        1.52870
H          0.88030       -1.61170       -0.08310
H          2.07630       -0.84300       -2.12250
H          2.22590        0.81790       -1.44190
H          3.44570       -1.78650       -0.32090
H          4.32230       -0.39830       -1.05560
H          4.39460       -0.41760        1.48260
H          3.67910        1.08420        0.79580
H          2.30460        0.29900        2.69330
H          2.14260       -1.33480        1.97690
H          1.16130        1.22850        0.81370
