27

C         -4.24320        0.25050       -0.67500
C         -2.86210        0.79150       -1.02380
N         -1.84440        0.17730       -0.17420
C         -1.60490        0.41610        1.20190
O         -2.32040        1.16500        1.91820
N         -0.45400       -0.26210        1.68650
C          0.14040       -1.00200        0.57300
C          1.54850       -0.52570        0.30400
C          2.60930       -1.44720        0.27360
C          3.91500       -1.01330        0.02310
C          4.17300        0.34170       -0.19950
C          3.12590        1.26610       -0.17240
C          1.81880        0.83750        0.07770
C         -0.78080       -0.68070       -0.57050
O         -0.64690       -1.12590       -1.74160
H         -4.50470        0.50370        0.37380
H         -4.26200       -0.85300       -0.80020
H         -5.00140        0.70110       -1.34940
H         -2.84330        1.89400       -0.88770
H         -2.64930        0.57150       -2.09200
H         -0.10010       -0.24090        2.66880
H          0.10280       -2.09230        0.78710
H          2.42760       -2.50130        0.44280
H          4.72720       -1.72840        0.00110
H          5.18430        0.67520       -0.39340
H          3.32680        2.31540       -0.34570
H          1.01790        1.56620        0.09390
