22

C          1.76890        1.64250        0.88120
C          0.96140        0.37900        0.55600
C          1.91500       -0.76230        0.17060
C         -0.06450        0.68450       -0.56420
C         -1.06070       -0.46090       -0.84720
N         -1.93780       -0.08700       -1.95910
C         -1.87450       -0.80860        0.37320
O         -2.62210        0.05390        0.90880
O         -1.79610       -2.08830        0.91340
H          1.09000        2.46040        1.20430
H          2.34140        1.98170       -0.00900
H          2.48040        1.44280        1.71080
H          0.42050        0.08540        1.48200
H          2.40520       -0.55320       -0.80430
H          1.36820       -1.72510        0.10590
H          2.70170       -0.88510        0.94550
H          0.48230        0.92270       -1.50360
H         -0.64370        1.59370       -0.28720
H         -0.48980       -1.36000       -1.16250
H         -2.56810       -0.89370       -2.17610
H         -2.54490        0.71640       -1.67380
H         -2.33280       -2.33900        1.73510
