29

O          4.96690       -0.95600       -1.65600
C          4.19160       -0.33040       -0.88470
N          4.68460        0.47470        0.10570
C          3.84190        1.15030        0.95470
N          2.48530        1.03500        0.82560
C          2.00690        0.24250       -0.16380
C          2.81380       -0.43720       -1.00860
N          2.08640       -1.17490       -1.86860
C          0.80700       -0.89650       -1.49290
N          0.72800       -0.01980       -0.45720
C         -0.46880        0.42110        0.26060
C         -0.84600       -0.57730        1.34540
C         -2.34110       -0.55790        1.30790
C         -2.62860       -0.18710       -0.13870
C         -3.93460        0.60410       -0.27610
O         -4.19130        0.89350       -1.62360
O         -1.54810        0.56980       -0.63800
H          5.71760        0.57740        0.22550
H          4.25170        1.77860        1.73460
H         -0.05770       -1.34510       -1.96490
H         -0.27570        1.41220        0.72850
H         -0.48000       -1.59840        1.09480
H         -0.45430       -0.27320        2.34050
H         -2.71840        0.22050        2.00880
H         -2.77350       -1.54690        1.57500
H         -2.70860       -1.12160       -0.73890
H         -3.85100        1.56240        0.28010
H         -4.78130        0.02640        0.16100
H         -4.52280        0.05370       -2.03660
