71

C         -3.77880        1.88680        3.05090
O         -4.32660        0.92790        2.15190
C         -3.73690       -0.31150        1.85760
C         -2.55220       -0.74050        2.48350
C         -1.97010       -1.95990        2.13540
C         -2.56430       -2.77800        1.16450
C         -1.91300       -4.07890        0.76650
C         -1.50800       -4.11670       -0.71350
N         -0.60220       -2.98430       -1.04490
C          0.63990       -3.48130       -1.66520
C         -1.24700       -1.95020       -1.89800
C         -1.09920       -0.55170       -1.28020
C          0.36250       -0.05390       -1.26090
C          0.55620        1.43140       -0.78980
C         -0.24550        2.25510       -1.73380
N         -0.87170        2.89430       -2.46840
C          2.05190        1.83710       -0.88700
C          2.44240        3.10960       -1.36710
C          3.78630        3.47500       -1.44050
C          4.79080        2.58930       -1.02230
O          6.15330        2.92250       -1.08580
C          6.65930        4.16110       -1.57310
C          4.43470        1.33370       -0.51750
O          5.46150        0.47490       -0.09180
C          5.25770       -0.82880        0.44420
C          3.07640        0.96840       -0.44520
C          0.00130        1.68440        0.66590
C          0.61010        0.76990        1.74560
C          0.15610        3.15170        1.11710
C         -3.77120       -2.37500        0.57240
C         -4.35380       -1.13580        0.90360
O         -5.53920       -0.68570        0.30120
C         -6.25300       -1.39690       -0.70480
H         -3.71500        1.45930        4.07360
H         -4.44020        2.77680        3.07890
H         -2.77170        2.20230        2.70480
H         -2.06560       -0.13190        3.23230
H         -1.04630       -2.25760        2.61580
H         -1.00830       -4.26920        1.38480
H         -2.62370       -4.90950        0.96780
H         -2.41590       -4.14950       -1.35410
H         -1.01640       -5.10290       -0.88150
H          0.41780       -4.05660       -2.59160
H          1.18400       -4.13490       -0.94990
H          1.31950       -2.64360       -1.92420
H         -2.33960       -2.12160       -2.01140
H         -0.83890       -1.94410       -2.93490
H         -1.73240        0.14210       -1.87210
H         -1.50120       -0.57240       -0.25080
H          0.92510       -0.74970       -0.61450
H          0.78550       -0.15790       -2.28570
H          1.71170        3.84490       -1.67470
H          4.03300        4.45740       -1.81960
H          6.27750        4.99980       -0.95350
H          7.76670        4.14960       -1.51110
H          6.36420        4.30330       -2.63420
H          4.65450       -0.76920        1.37480
H          4.74820       -1.47390       -0.30260
H          6.24210       -1.27800        0.68820
H          2.82770        0.00960       -0.02500
H         -1.09280        1.48320        0.66170
H          1.69420        0.96280        1.87410
H          0.12010        0.96560        2.72280
H          0.44610       -0.30030        1.51420
H         -0.34640        3.30430        2.09630
H          1.22700        3.42230        1.23150
H         -0.31600        3.84600        0.39170
H         -4.23760       -3.02100       -0.15880
H         -6.59760       -2.37560       -0.30900
H         -5.60700       -1.54960       -1.59530
H         -7.14040       -0.80410       -1.00720
