29

C         -3.22850        0.97940       -0.84110
N         -2.68340       -0.31990       -0.42480
C         -1.31480       -0.28600        0.15250
C         -0.94970       -1.74210        0.52140
C         -1.30770        0.54770        1.45560
C         -0.28620        0.27930       -0.88080
C          1.15960        0.16080       -0.45030
C          1.74890        1.15380        0.35170
C          3.08940        1.04820        0.73480
C          3.85510       -0.04140        0.31220
C          3.28300       -1.02490       -0.49870
C          1.94290       -0.92320       -0.88440
H         -2.66540        1.39930       -1.70030
H         -4.27860        0.83680       -1.17200
H         -3.25100        1.69990        0.00030
H         -2.68870       -0.94310       -1.26710
H         -0.87530       -2.36910       -0.39310
H         -1.73300       -2.17970        1.17750
H          0.01780       -1.79830        1.06450
H         -2.17460        0.27180        2.09370
H         -0.38150        0.36790        2.04210
H         -1.35610        1.63540        1.24030
H         -0.49350        1.35150       -1.08360
H         -0.42090       -0.24680       -1.85170
H          1.17160        2.00940        0.67860
H          3.53550        1.81330        1.35690
H          4.89280       -0.12120        0.60930
H          3.87840       -1.86590       -0.82970
H          1.51380       -1.69290       -1.51390
