49

C         -2.45920        0.86780        1.33770
C         -2.07000        0.24690       -0.03260
C         -2.84840        1.00350       -1.16040
C         -4.36660        0.81090       -1.08880
C         -4.71210       -0.63760       -0.94530
O         -5.87330       -1.03100       -1.23330
C         -3.72430       -1.60310       -0.44150
C         -2.50380       -1.22650       -0.01690
C         -1.62460       -2.29530        0.58560
C         -0.31380       -1.74950        1.14200
C          0.37680       -0.84850        0.11210
C         -0.51380        0.37880       -0.33330
C          0.08060        1.75360        0.12160
C          1.56120        1.97310       -0.28820
C          2.40510        0.66340       -0.29060
C          2.57040        0.14870       -1.75680
C          3.79200        0.79490        0.37380
O          4.75610        1.32330       -0.50050
C          4.15110       -0.63770        0.81980
C          2.83050       -1.42200        0.88330
C          1.75090       -0.37190        0.63710
H         -2.41680        1.97710        1.30140
H         -1.79180        0.53260        2.15280
H         -3.49490        0.58650        1.62490
H         -2.51820        0.63310       -2.15690
H         -2.62940        2.09210       -1.13010
H         -4.82030        1.20680       -2.02330
H         -4.79410        1.37920       -0.23600
H         -4.01770       -2.64550       -0.38350
H         -1.39680       -3.05310       -0.19630
H         -2.17040       -2.80590        1.40920
H         -0.48360       -1.21060        2.09480
H          0.34070       -2.61600        1.37960
H          0.55820       -1.48820       -0.78170
H         -0.41770        0.39340       -1.43950
H          0.02320        1.83230        1.22800
H         -0.52120        2.58880       -0.29390
H          1.58600        2.45310       -1.29140
H          1.99940        2.71880        0.41000
H          1.59950       -0.00650       -2.26230
H          3.12430        0.89330       -2.36720
H          3.13310       -0.80630       -1.80130
H          3.71400        1.44060        1.28120
H          5.56570        1.49890        0.04640
H          4.64530       -0.61750        1.81560
H          4.83910       -1.11890        0.09020
H          2.80550       -2.20740        0.09680
H          2.70100       -1.90210        1.87780
H          1.57320        0.11010        1.62960
