25

C          3.43790        0.89470       -1.06220
N          2.36260        0.12390       -0.44850
C          2.30990       -0.31810        0.89480
O          3.22300       -0.08530        1.73070
C          1.06960       -1.08750        1.21070
C          0.27550       -1.07510       -0.12350
C         -1.07290       -0.39760        0.01270
C         -1.17020        0.95360        0.39970
C         -2.42110        1.56540        0.52270
C         -3.58510        0.83820        0.26260
C         -3.50030       -0.50250       -0.12090
C         -2.25150       -1.11940       -0.24550
C          1.16990       -0.32640       -1.06440
O          0.90400       -0.12710       -2.28000
H          3.55730        1.85890       -0.52530
H          3.21110        1.10380       -2.12860
H          4.38690        0.32210       -1.00260
H          1.33660       -2.12730        1.49760
H          0.52100       -0.60080        2.04620
H          0.16290       -2.11750       -0.49600
H         -0.27750        1.53110        0.60560
H         -2.48790        2.60390        0.82020
H         -4.55280        1.31350        0.35840
H         -4.40310       -1.06470       -0.32160
H         -2.20590       -2.15970       -0.54290
