51

C         -4.62000        1.68540        1.61500
C         -3.96080        0.76020        1.21110
C         -3.15030       -0.37960        0.71410
O         -3.97020       -1.23230       -0.05680
C         -2.56350       -1.17790        1.89170
C         -1.20180       -1.69270        1.43570
C         -0.97650       -1.16900        0.00780
C          0.54130       -0.96310       -0.29840
C          0.91520       -1.18670       -1.78630
C          2.44240       -1.35910       -1.95590
C          3.19810       -0.59720       -0.89020
C          4.25560       -1.15720       -0.28070
C          4.84700       -0.56030        0.92520
O          5.88950       -1.06030        1.42450
C          4.16230        0.58170        1.61070
C          3.47080        1.47740        0.58050
C          2.55200        0.67820       -0.37600
C          1.13700        0.38080        0.23170
C          0.19340        1.56820       -0.04180
C         -1.21110        1.31480        0.50310
C         -1.90810        0.06630       -0.13250
C         -2.27600        0.30990       -1.63990
C         -3.37290        1.35060       -1.89060
H         -5.19800        2.49800        1.96880
H         -4.74620       -1.50880        0.49960
H         -2.42530       -0.53180        2.78860
H         -3.22260       -2.02370        2.18750
H         -1.17540       -2.80470        1.45120
H         -0.41910       -1.31800        2.13160
H         -1.35480       -1.97300       -0.66500
H          1.06680       -1.78080        0.24930
H          0.40640       -2.09010       -2.18690
H          0.59230       -0.32000       -2.39580
H          2.68600       -2.44370       -1.90510
H          2.75000       -0.98890       -2.95710
H          4.66740       -2.08840       -0.65160
H          3.41740        0.17920        2.32920
H          4.90490        1.18310        2.17860
H          4.25520        1.98840       -0.02130
H          2.89610        2.26980        1.10530
H          2.41880        1.31870       -1.27730
H          1.23610        0.27890        1.33490
H          0.14780        1.79870       -1.12560
H          0.59630        2.47530        0.45810
H         -1.12740        1.19110        1.60490
H         -1.81690        2.22990        0.34650
H         -2.60620       -0.64210       -2.10930
H         -1.38910        0.63170       -2.21230
H         -4.34190        1.02200       -1.46440
H         -3.09690        2.34130       -1.47880
H         -3.51510        1.46990       -2.98540
