40

C          2.88730        0.51270        3.18640
C          3.04910       -0.16750        1.85870
C          4.30810       -0.26330        1.25180
C          4.44690       -0.89900        0.01730
C          3.32900       -1.44770       -0.63050
C          3.48900       -2.12450       -1.96300
C          2.05650       -1.35220       -0.03370
O          0.95380       -1.90760       -0.70880
C         -0.41290       -1.79120       -0.31230
C         -0.94650       -0.38750       -0.61970
C         -2.41950       -0.25460       -0.18740
C         -3.07080        1.14470       -0.43430
C         -3.04930        1.49810       -1.93630
C         -2.33050        2.23910        0.36380
C         -4.52160        1.13060        0.02430
O         -5.03950        0.09420        0.52460
O         -5.29880        2.27960       -0.10660
C          1.92870       -0.71330        1.21690
H          2.47480       -0.20580        3.92570
H          3.85700        0.89490        3.57070
H          2.18780        1.36900        3.08370
H          5.18450        0.15300        1.73290
H          5.42980       -0.96180       -0.43320
H          2.89570       -1.58320       -2.72980
H          3.12790       -3.17250       -1.89650
H          4.55060       -2.14220       -2.28960
H         -1.00210       -2.53220       -0.89340
H         -0.53100       -2.04740        0.76220
H         -0.84840       -0.21490       -1.71150
H         -0.32450        0.35840       -0.08720
H         -3.00930       -1.02720       -0.73020
H         -2.48470       -0.49390        0.89800
H         -3.52340        0.68990       -2.53390
H         -2.01220        1.64960       -2.30120
H         -3.60130        2.44360       -2.12850
H         -2.27460        1.96700        1.44000
H         -2.85560        3.21510        0.27810
H         -1.30030        2.39330       -0.01860
H         -6.26640        2.29030        0.19300
H          0.96640       -0.63390        1.70290
