38

C          4.01910        1.45840       -0.47100
N          3.26600        0.20600       -0.29430
C          4.06190       -0.73120        0.51840
C          1.95530        0.47720        0.33690
C          0.92990       -0.59350       -0.07140
C         -0.46380       -0.33510        0.54430
C         -1.08820        0.96370        0.06130
C         -1.45460        1.95330        0.99270
C         -2.02670        3.15450        0.56330
C         -2.24060        3.38210       -0.79770
C         -1.88330        2.40850       -1.73260
C         -1.31090        1.20540       -1.30940
C         -1.39760       -1.49490        0.27640
C         -2.08410       -2.12110        1.33010
C         -2.94480       -3.18510        1.05300
C         -3.11690       -3.61600       -0.26290
C         -2.42200       -2.97190       -1.28780
N         -1.58800       -1.93760       -0.99940
H          4.17010        1.97760        0.50210
H          3.47520        2.13560       -1.16420
H          5.00970        1.25320       -0.93160
H          3.52870       -1.69600        0.64030
H          5.02240       -0.95850        0.00750
H          4.28160       -0.30960        1.52490
H          1.56150        1.46310        0.00110
H          2.04150        0.52370        1.44670
H          0.86690       -0.63410       -1.18020
H          1.28300       -1.58750        0.27590
H         -0.31020       -0.26850        1.64560
H         -1.29770        1.79770        2.05270
H         -2.30440        3.90980        1.28720
H         -2.68350        4.31280       -1.12780
H         -2.04960        2.58600       -2.78730
H         -1.04130        0.46800       -2.05330
H         -1.95820       -1.78880        2.35290
H         -3.47870       -3.67420        1.85750
H         -3.78240       -4.43960       -0.48660
H         -2.54550       -3.29340       -2.31330
