40

C         -4.22230       -1.75130       -2.56730
C         -3.08410       -1.34700       -1.67790
C         -2.47000       -2.27890       -0.82670
C         -1.40960       -1.88950       -0.00310
C         -0.94690       -0.56380       -0.02090
N          0.14940       -0.15580        0.82280
C          1.43260       -0.87030        0.73150
C          2.27600       -0.31890       -0.41930
N          1.65330       -0.62040       -1.70760
C          2.66640       -1.28700       -2.50440
C          3.97190       -1.13040       -1.76520
N          3.61800       -0.88990       -0.37820
C          0.01010        1.01070        1.66900
C         -1.22090        1.28780        2.29380
C         -1.36590        2.41110        3.11190
C         -0.28650        3.27150        3.31910
C          0.94570        3.01060        2.70720
O          2.02980        3.86290        2.90480
C          1.09280        1.88570        1.88800
C         -1.56740        0.36780       -0.86870
C         -2.62700       -0.02160       -1.69240
H         -5.12230       -1.15080       -2.31750
H         -3.94880       -1.57100       -3.62820
H         -4.47230       -2.82690       -2.44640
H         -2.81300       -3.30560       -0.79580
H         -0.96340       -2.61800        0.66100
H          1.99120       -0.76220        1.68700
H          1.27090       -1.95900        0.58230
H          2.40360       -2.36290       -2.59750
H          2.71980       -0.82930       -3.51500
H          4.58970       -2.05000       -1.84730
H          4.53990       -0.26560       -2.17980
H          4.25730       -0.16090        0.01470
H         -2.06750        0.62720        2.15620
H         -2.31660        2.61310        3.58820
H         -0.40800        4.13950        3.95460
H          1.95640        4.68600        3.49140
H          2.04960        1.71040        1.41590
H         -1.22110        1.39320       -0.89710
H         -3.09090        0.70940       -2.34320
