57

C         -4.40590       -1.58060       -1.51030
C         -4.37230       -0.21960       -0.81570
C         -3.07450       -0.00010       -0.05710
C         -1.88390        0.18920       -0.69460
C         -1.80120        0.38360       -2.16140
C         -1.09300       -0.53680       -2.95140
C         -0.97740       -0.33810       -4.33040
C         -1.55180        0.78810       -4.92630
C         -2.23600        1.72150       -4.14270
C         -2.35390        1.52620       -2.76340
C         -0.59390        0.18440        0.04360
C          0.30970        1.24640       -0.11300
C          1.53070        1.24350        0.56720
C          1.87440        0.16550        1.40560
O          3.08770        0.10590        2.10990
C          4.19640        0.98950        1.93330
C          4.91660        0.71490        0.60650
N          5.18540       -0.73020        0.43620
C          5.34840       -1.05240       -0.99050
C          6.39610       -1.13440        1.17220
C          0.97360       -0.89490        1.55460
C         -0.24660       -0.89320        0.87440
C         -3.15890        0.03200        1.42790
C         -3.72510       -1.04440        2.13200
C         -3.80100       -1.01230        3.52780
C         -3.32040        0.09540        4.23080
C         -2.76700        1.17570        3.53900
C         -2.69000        1.14860        2.14350
H         -4.21420       -2.39550       -0.78130
H         -5.40750       -1.73960       -1.96230
H         -3.65050       -1.63390       -2.31950
H         -5.23330       -0.17500       -0.11340
H         -4.54220        0.58720       -1.55630
H         -0.64010       -1.41090       -2.49970
H         -0.43980       -1.05560       -4.93670
H         -1.45990        0.94150       -5.99380
H         -2.66890        2.60010       -4.60320
H         -2.86620        2.26820       -2.16330
H          0.06220        2.08530       -0.75190
H          2.19150        2.08790        0.43700
H          4.90300        0.83610        2.77430
H          3.86710        2.04860        1.98900
H          4.26370        1.08870       -0.21240
H          5.85600        1.31130        0.56040
H          4.40630       -0.83790       -1.53970
H          5.55800       -2.13620       -1.12090
H          6.17720       -0.46370       -1.44390
H          7.29340       -0.58350        0.81160
H          6.57180       -2.22510        1.04990
H          6.27010       -0.95240        2.25920
H          1.22610       -1.73110        2.19420
H         -0.91740       -1.73560        0.98990
H         -4.09470       -1.91380        1.60440
H         -4.23120       -1.84770        4.06490
H         -3.37950        0.11790        5.31130
H         -2.39980        2.03570        4.08390
H         -2.26730        1.99750        1.62030
