31

C         -1.48290        2.20640        0.27000
C         -1.34700        1.01220       -0.68810
C         -0.41060       -0.14230       -0.19310
C          1.09840        0.20310       -0.25950
C          1.59380        1.45360       -0.70590
C          2.96810        1.70650       -0.75510
C          3.87920        0.72050       -0.38180
C          3.41970       -0.52810        0.03070
C          2.04830       -0.78900        0.08390
C         -0.77360       -0.55780        1.26940
C         -2.18810       -1.13750        1.40810
C         -2.41620       -2.24090        0.41990
O         -3.33430       -3.07870        0.62480
N         -1.62040       -2.33700       -0.76540
C         -0.66780       -1.32550       -1.11530
O         -0.08840       -1.39070       -2.23420
H         -0.51080        2.49890        0.71450
H         -2.18410        1.96270        1.09490
H         -1.89770        3.07660       -0.28070
H         -1.00920        1.37170       -1.68420
H         -2.37290        0.61810       -0.86230
H          0.94310        2.24820       -1.03320
H          3.32750        2.67040       -1.09210
H          4.94210        0.92010       -0.42460
H          4.12770       -1.30060        0.30230
H          1.73130       -1.78130        0.37650
H         -0.65630        0.30040        1.96420
H         -0.07410       -1.33760        1.63750
H         -2.95650       -0.35040        1.26350
H         -2.30630       -1.53880        2.43800
H         -1.78180       -3.13310       -1.42280
