41

C         -4.36770        2.08200       -2.00620
O         -3.91640        1.13970       -1.03800
C         -2.61710        0.61190       -0.96720
C         -1.63830        1.00360       -1.89580
C         -0.35180        0.48650       -1.83420
C         -0.00050       -0.43570       -0.84590
C          1.42160       -0.95210       -0.82140
N          2.36080        0.13740       -0.48430
C          2.32510        0.48500        0.96060
C          3.51330       -0.10590        1.73610
N          4.80910        0.34980        1.19920
C          4.78460        0.64830       -0.24500
C          3.72110       -0.17720       -0.97910
C         -0.95750       -0.84830        0.10700
O         -0.53250       -1.77400        1.08300
C         -1.28820       -2.28500        2.17530
C         -2.28170       -0.32580        0.04830
O         -3.21570       -0.76510        1.00600
C         -4.57880       -0.37370        1.12820
H         -4.27610        1.65500       -3.02710
H         -5.43520        2.31420       -1.81400
H         -3.78090        3.02150       -1.92780
H         -1.86170        1.71500       -2.67860
H          0.38120        0.80990       -2.56390
H          1.55440       -1.80810       -0.12390
H          1.64080       -1.34900       -1.83900
H          1.38010        0.15980        1.44700
H          2.35670        1.59170        1.05510
H          3.42950        0.17660        2.80890
H          3.46920       -1.21500        1.68430
H          5.09170        1.22180        1.70570
H          4.58170        1.73060       -0.41160
H          5.78330        0.42040       -0.67410
H          3.95920       -1.25780       -0.84430
H          3.77320        0.05360       -2.06500
H         -2.15040       -2.87750        1.80410
H         -0.64060       -2.95930        2.77220
H         -1.62250       -1.45620        2.83410
H         -5.14460       -0.65610        0.21570
H         -5.02740       -0.90910        1.98980
H         -4.65090        0.71650        1.32560
