99

C         -1.93720        1.53680        3.72890
C         -0.93650        2.05810        2.67990
C         -0.54330        3.50180        3.05330
C          0.33580        1.18770        2.67420
N         -1.55720        2.06140        1.34100
C         -1.98340        0.88440        0.63150
O         -1.94330       -0.24600        1.18580
C         -2.51020        1.00810       -0.78010
C         -4.04810        1.24060       -0.75440
C         -4.87460       -0.01480       -1.11080
C         -4.91380       -1.02490        0.05460
C         -5.86470       -2.19630       -0.25080
C         -5.83030       -2.64440       -1.72690
C         -4.53740       -2.21780       -2.42970
C         -4.39390       -0.67550       -2.44450
C         -2.95030       -0.27190       -2.80650
N         -2.12880       -0.18360       -1.58250
C         -0.68510       -0.18230       -1.91940
C         -0.14040       -1.62210       -1.89180
O         -0.12500       -2.10110       -0.57140
C          1.27080       -1.72070       -2.53290
C          1.91820       -3.11460       -2.36850
C          1.09550       -4.20130       -3.01630
C          0.40420       -5.13710       -2.22750
C         -0.37090       -6.13180       -2.83140
C         -0.45810       -6.20330       -4.22420
C          0.23120       -5.28100       -5.01600
C          1.00660       -4.28380       -4.41650
N          2.18380       -0.66550       -2.06670
C          2.75270       -0.57790       -0.74870
O          2.28870       -1.26570        0.19980
C          3.94540        0.31110       -0.50250
C          5.19610       -0.52610       -0.18590
C          5.58320       -1.40430       -1.34320
N          5.49150       -2.82530       -1.23930
O          5.98800       -0.88290       -2.41650
N          3.66090        1.21560        0.61550
C          3.50130        2.63610        0.45510
O          3.57750        3.15280       -0.69340
C          3.23400        3.49730        1.62770
C          2.98170        4.87160        1.47490
C          2.70550        5.65440        2.59800
C          2.68000        5.06730        3.86780
C          2.38690        5.81990        5.01470
C          2.35770        5.19930        6.26790
C          2.62150        3.83030        6.38200
C          2.91650        3.07380        5.24360
C          2.94650        3.68600        3.98580
N          3.21420        2.95010        2.87480
H         -1.51070        1.62330        4.75180
H         -2.18710        0.46980        3.55950
H         -2.87850        2.12590        3.68780
H         -0.07200        3.53940        4.05930
H          0.17580        3.91010        2.31150
H         -1.43980        4.15850        3.06430
H          0.89150        1.29720        3.63010
H          0.09640        0.11190        2.55250
H          0.99900        1.48980        1.83710
H         -1.67810        2.97640        0.84890
H         -2.04990        1.91530       -1.23740
H         -4.29070        2.02210       -1.50880
H         -4.38210        1.65590        0.22300
H         -5.92340        0.32970       -1.26210
H         -5.24300       -0.52340        0.99070
H         -3.89910       -1.43740        0.22740
H         -5.59020       -3.05330        0.40230
H         -6.90460       -1.90250        0.01130
H         -6.69490       -2.20080       -2.26840
H         -5.93390       -3.74970       -1.78230
H         -4.54520       -2.59990       -3.47390
H         -3.67190       -2.68500       -1.90830
H         -5.04980       -0.29690       -3.26120
H         -2.52710       -1.01000       -3.52460
H         -2.95810        0.70940       -3.33540
H         -0.50530        0.28070       -2.91720
H         -0.09780        0.41740       -1.18780
H         -0.81560       -2.26360       -2.50580
H         -1.04500       -2.41110       -0.36290
H          1.12590       -1.55860       -3.62540
H          2.06890       -3.34020       -1.29160
H          2.92770       -3.10810       -2.83460
H          0.45570       -5.09070       -1.14680
H         -0.90560       -6.84640       -2.21920
H         -1.05890       -6.97380       -4.68990
H          0.16460       -5.33850       -6.09470
H          1.53720       -3.57680       -5.04200
H          2.51140        0.02120       -2.78330
H          4.15590        0.90090       -1.42100
H          5.01340       -1.14590        0.71920
H          6.04640        0.15220        0.04290
H          5.75750       -3.42990       -2.04780
H          5.13600       -3.27700       -0.36770
H          3.54130        0.79410        1.56470
H          2.98840        5.33550        0.49660
H          2.50460        6.71170        2.47320
H          2.17800        6.88050        4.94160
H          2.12920        5.77990        7.15230
H          2.59590        3.35490        7.35400
H          3.11470        2.01340        5.34000
