38

C         -3.48420        2.23110        0.72830
C         -3.87490        1.12790       -0.25000
N         -2.88360        0.03940       -0.22440
C         -3.18690       -1.25000        0.35390
C         -4.33350       -1.44330        1.30000
O         -2.48440       -2.25250        0.04930
C         -1.56580        0.27660       -0.75860
C         -1.39880        0.72960       -2.07650
C         -0.11890        0.96680       -2.58210
C          1.00460        0.75280       -1.78040
C          0.85840        0.29240       -0.46150
C          2.04800        0.07290        0.39560
C          2.07430        0.52730        1.72910
C          3.22660        0.30320        2.50690
N          4.30110       -0.35130        1.98090
C          4.23780       -0.77530        0.69570
C          5.17500       -1.47320       -0.02150
C          6.47220       -1.91800        0.40900
N          7.51650       -2.27600        0.75570
C          4.57290       -1.67780       -1.25610
N          3.33610       -1.12190       -1.25790
N          3.15570       -0.57210       -0.06590
C         -0.43300        0.06110        0.04340
H         -2.51430        2.68360        0.43210
H         -3.39520        1.81670        1.75470
H         -4.26150        3.02400        0.72720
H         -3.95420        1.55230       -1.27240
H         -4.88850        0.76030        0.01080
H         -4.38390       -0.59840        2.01790
H         -4.20080       -2.38200        1.87890
H         -5.28310       -1.50910        0.72960
H         -2.25580        0.88490       -2.71830
H          0.00270        1.31960       -3.59810
H          1.98590        0.96570       -2.18520
H          1.23200        1.05670        2.15670
H          3.26100        0.65130        3.53050
H          5.00310       -2.20490       -2.09740
H         -0.56260       -0.29010        1.06000
