13

C         -1.30020       -0.32030        0.55180
C         -0.20530       -0.06890       -0.49360
N         -0.02910        1.36630       -0.72960
C          1.09290       -0.69560       -0.06180
O          1.16730       -1.94580        0.08090
O          2.21830        0.09150        0.17050
H         -2.25370        0.14500        0.22330
H         -1.01010        0.11100        1.53410
H         -1.47210       -1.41110        0.67460
H         -0.51340       -0.54720       -1.44960
H          0.12210        1.85420        0.18400
H         -0.91160        1.74770       -1.14230
H          3.09490       -0.32700        0.45780
