32

C         -3.39060       -0.85060       -1.11020
C         -2.82720       -1.02320        0.08910
C         -1.37430       -1.41030        0.25090
C         -0.38100       -0.21080        0.10190
C          1.07180       -0.61030        0.58650
C          1.61570       -1.91490       -0.04100
C          2.08860        0.54970        0.37520
C          3.37120        0.38500        1.19350
C         -0.87850        0.91280        1.01770
O         -1.02300        0.68410        2.25010
N         -1.17730        2.22230        0.52810
C         -1.03470        2.55120       -0.84820
O         -1.27970        3.72130       -1.24470
N         -0.62200        1.55710       -1.77820
C         -0.34480        0.21580       -1.36760
O         -0.06700       -0.63510       -2.25550
H         -4.43970       -0.58320       -1.18220
H         -2.82130       -0.98400       -2.02390
H         -3.44010       -0.91020        0.97850
H         -1.14880       -2.21730       -0.47890
H         -1.25640       -1.85530        1.26330
H          1.01120       -0.80830        1.68090
H          2.57290       -2.20350        0.43820
H          1.80180       -1.80050       -1.12750
H          0.93130       -2.76830        0.13150
H          2.35460        0.63590       -0.70080
H          1.63580        1.51690        0.67800
H          3.13220        0.21370        2.26440
H          3.97950        1.31070        1.11420
H          3.98370       -0.45580        0.80900
H         -1.49980        2.95730        1.19730
H         -0.54390        1.80780       -2.78970
