28

C         -2.03030       -0.20240        1.75840
N         -1.52020        0.84860        0.86960
C         -1.60900        0.53280       -0.57380
C         -3.04250        0.18660       -1.01660
C         -0.59800       -0.57190       -0.99310
O         -0.56270       -0.72950       -2.39130
C          0.79900       -0.30210       -0.46140
C          1.50490        0.85720       -0.83510
C          2.78730        1.09810       -0.33340
C          3.38220        0.18840        0.54530
O          4.66040        0.44220        1.03750
C          2.68800       -0.96820        0.92230
C          1.40550       -1.21260        0.42250
H         -1.82320        0.08540        2.81030
H         -1.52040       -1.16900        1.57570
H         -3.12940       -0.32120        1.65160
H         -2.07080        1.71990        1.05460
H         -1.33400        1.46160       -1.12220
H         -3.75630        0.94700       -0.63490
H         -3.10580        0.18100       -2.12550
H         -3.34570       -0.81610       -0.64830
H         -0.95950       -1.53910       -0.58360
H         -0.34930        0.15030       -2.79760
H          1.06470        1.57860       -1.51100
H          3.31920        1.99400       -0.62730
H          5.11860       -0.19750        1.67600
H          3.14080       -1.67810        1.60270
H          0.88660       -2.11240        0.72860
