65

C         -8.55480        0.36120        2.11390
C         -7.21010        0.17840        1.41620
C         -7.39560       -0.04520       -0.09180
C         -6.07390       -0.36540       -0.80730
C         -5.12970        0.84740       -0.87410
C         -3.92250        0.60790       -1.79890
C         -2.98000       -0.51380       -1.32940
C         -2.45650       -0.30020        0.07160
O         -2.76300       -1.09530        0.94730
C         -1.57100        0.87110        0.41980
C         -0.16630        0.77980       -0.20250
C          0.76300       -0.24030        0.50660
C          0.46690       -1.72080        0.23150
O          0.06930       -1.91610       -1.10190
C          1.78490       -2.45890        0.49980
C          2.87820       -1.39640        0.68200
O          3.22670       -1.28910        2.03930
C          2.26510       -0.06680        0.20980
C          2.58430        0.20730       -1.28610
C          4.05690        0.42280       -1.51720
C          4.69020        1.50840       -1.04800
C          6.17650        1.68590       -1.20470
C          6.90460        1.50720        0.13380
C          6.84070        0.05880        0.63900
C          7.59710       -0.09260        1.92510
O          6.97920       -0.35970        2.98930
O          8.98210        0.04490        1.95570
H         -9.18240       -0.54670        1.98780
H         -8.39080        0.53050        3.19910
H         -9.09070        1.23920        1.69420
H         -6.59700        1.08690        1.59430
H         -6.68860       -0.69450        1.86600
H         -7.86690        0.85060       -0.55270
H         -8.08500       -0.90440       -0.24550
H         -6.31430       -0.69350       -1.84220
H         -5.57430       -1.21240       -0.29010
H         -5.69080        1.72270       -1.26800
H         -4.77180        1.11230        0.14280
H         -3.34770        1.55440       -1.88960
H         -4.28850        0.36140       -2.81930
H         -2.12680       -0.57970       -2.03510
H         -3.50920       -1.48900       -1.39020
H         -1.48580        0.96690        1.52450
H         -2.05810        1.80360        0.06590
H         -0.23790        0.57850       -1.29150
H          0.29480        1.78630       -0.09610
H          0.64590       -0.08260        1.60440
H         -0.32420       -2.08300        0.92760
H         -0.35010       -2.81490       -1.14450
H          1.69050       -3.09360        1.40860
H          2.04590       -3.12570       -0.35180
H          3.78130       -1.67000        0.08840
H          3.82230       -2.05690        2.24330
H          2.65760        0.78050        0.81650
H          2.05310        1.11370       -1.64420
H          2.24830       -0.64930       -1.90840
H          4.60830       -0.33030       -2.07360
H          4.13830        2.25710       -0.48630
H          6.59310        0.98240       -1.95940
H          6.36270        2.71570       -1.57710
H          6.46320        2.19070        0.89300
H          7.96710        1.80080       -0.00970
H          7.27520       -0.62960       -0.11730
H          5.78100       -0.23110        0.80390
H          9.51020        0.23230        1.11200
