51

C         -4.01130       -1.94780        1.91680
C         -3.83810       -1.38300        0.48530
C         -4.23950       -2.47620       -0.53140
C         -4.79300       -0.16860        0.36340
C         -4.46890        0.70000       -0.84500
C         -3.05190        1.32180       -0.75780
C         -3.06050        2.52170        0.21680
C         -2.70030        1.83580       -2.17600
C         -2.01060        0.29580       -0.28430
C         -0.63910        0.63050       -0.35530
C          0.35800       -0.28210        0.00070
N          1.73930        0.09570       -0.13050
C          2.77050       -0.30560        0.79180
O          2.46860       -0.96090        1.82660
C          4.19220        0.04370        0.55510
C          4.55540        1.21710       -0.12820
C          5.90210        1.52980       -0.33500
C          6.91650        0.67810        0.13470
C          8.34080        1.02600       -0.09120
O          8.66160        2.22000       -0.33380
O          9.34710        0.06120       -0.05880
C          6.55340       -0.48220        0.83970
C          5.20680       -0.79360        1.04860
C         -0.00930       -1.56940        0.40050
C         -1.35330       -1.91060        0.52370
C         -2.37620       -0.97930        0.24080
H         -3.60810       -1.23440        2.66810
H         -3.49390       -2.92060        2.04750
H         -5.08660       -2.12020        2.14110
H         -4.05870       -2.14010       -1.57360
H         -3.64830       -3.40310       -0.37260
H         -5.31400       -2.73940       -0.42550
H         -5.84760       -0.51430        0.28430
H         -4.74260        0.45920        1.27920
H         -4.56770        0.08420       -1.76490
H         -5.23680        1.50100       -0.92710
H         -3.85120        3.25150       -0.06110
H         -2.08700        3.05630        0.19810
H         -3.23800        2.18860        1.26060
H         -2.55290        0.98270       -2.87340
H         -1.77870        2.45340       -2.18070
H         -3.51900        2.47440       -2.57400
H         -0.33170        1.61270       -0.68700
H          1.98010        0.73810       -0.91680
H          3.80770        1.91410       -0.48060
H          6.14970        2.44010       -0.86710
H          9.15240       -0.92770        0.02730
H          7.30250       -1.14220        1.25480
H          4.95790       -1.69650        1.59290
H          0.74170       -2.32060        0.60630
H         -1.58940       -2.91510        0.84620
