79

C          0.23980       -2.21330       -2.23640
C          0.17990       -2.16180       -0.73040
C          0.99920       -1.37710        0.00280
C          2.02720       -0.45020       -0.51760
O          2.20650       -0.28610       -1.75490
O          2.80190        0.26190        0.40460
C          3.86900        1.13360        0.03230
C          5.10830        0.34160       -0.41120
C          5.66760       -0.57040        0.69710
C          6.47170        0.19650        1.77110
C          7.99510        0.05530        1.61350
C          8.52710        0.74180        0.34800
C         10.06230        0.70200        0.30500
C         10.62430        1.35560       -0.96910
C         10.53870        2.86010       -0.98110
O         10.12340        3.49950        0.02220
O         10.94140        3.56410       -2.11150
C         -0.81960       -3.04980       -0.01510
C         -2.06420       -2.28220        0.47910
O         -1.66330       -1.34010        1.47220
C         -2.52950       -0.22140        1.62270
C         -4.00840       -0.53270        1.31480
C         -4.92410        0.63940        1.72860
C         -6.40370        0.27330        1.56830
O         -7.22840        1.38910        1.82210
C         -7.15870        0.95310        0.48340
C         -8.45450        0.25530        0.02690
C         -8.10980       -0.85190       -0.97650
C         -9.47970        1.24720       -0.58390
C         -9.94820        2.30970        0.42210
O         -8.99180        1.84410       -1.76180
C         -4.15160       -0.95270       -0.17610
O         -4.48270        0.13040       -1.01180
C         -2.86610       -1.64910       -0.69570
O         -3.18810       -2.60170       -1.67950
H          1.24620       -2.54650       -2.56650
H         -0.50360       -2.92650       -2.64900
H          0.00970       -1.21340       -2.66040
H          0.91930       -1.41940        1.08250
H          4.12090        1.77620        0.90060
H          3.53930        1.80640       -0.78900
H          5.88750        1.05440       -0.75340
H          4.83850       -0.28710       -1.28640
H          4.82900       -1.11390        1.18440
H          6.30280       -1.35360        0.22870
H          6.20080        1.27350        1.79650
H          6.20140       -0.21830        2.76680
H          8.47530        0.51790        2.50370
H          8.27270       -1.02160        1.60450
H          8.17640        1.79570        0.32790
H          8.13120        0.21890       -0.54890
H         10.38980       -0.36080        0.32190
H         10.48880        1.19640        1.20540
H         10.09250        0.95480       -1.85900
H         11.69470        1.07520       -1.06760
H         11.28700        3.08120       -2.93230
H         -1.14280       -3.88190       -0.67680
H         -0.32380       -3.53820        0.85290
H         -2.71840       -3.03460        0.97460
H         -2.44280        0.12950        2.67300
H         -2.16860        0.60720        0.97510
H         -4.29020       -1.40450        1.94900
H         -4.66110        1.56000        1.16280
H         -4.75420        0.86390        2.80400
H         -6.81370       -0.64290        2.04470
H         -6.61430        1.66460       -0.17200
H         -8.94400       -0.23580        0.89940
H         -7.57000       -0.43560       -1.85410
H         -9.03480       -1.35670       -1.32800
H         -7.46670       -1.61720       -0.49300
H        -10.38330        0.66160       -0.86270
H         -9.11250        2.97980        0.71410
H        -10.74940        2.92840       -0.03470
H        -10.35670        1.82250        1.33290
H         -8.31000        2.51780       -1.50700
H         -4.99560       -1.67450       -0.22500
H         -3.75660        0.80320       -0.93800
H         -2.21270       -0.88510       -1.17040
H         -3.68930       -3.33480       -1.23530
