68

C          4.20500        2.26630        1.90290
C          3.36270        1.70190        0.75330
C          1.88390        2.18550        0.70750
C          1.80950        3.72960        0.64390
C          1.10820        1.69900        1.94910
C          1.24200        1.57490       -0.52850
O          0.81550        2.30730       -1.46500
O          1.13780        0.17990       -0.62790
C          0.66770       -0.50510       -1.79320
C          1.80610       -0.54300       -2.83520
C          2.77900       -1.70460       -2.60010
C          3.58920       -1.56880       -1.30630
C          2.01630       -2.99070       -2.62330
C          0.76100       -3.07650       -2.15660
C          0.02310       -4.33580       -2.38930
C         -1.25140       -4.48460       -2.03680
C         -1.99860       -3.45200       -1.24020
C         -2.01280       -3.88240        0.23280
C         -1.44860       -2.01300       -1.50660
C         -2.26520       -0.91450       -0.75510
C         -1.81340       -0.57660        0.68270
C         -2.75270        0.42710        1.37250
C         -2.79430        1.80360        0.64730
C         -3.19570        3.00530        1.55650
O         -2.06830        3.79830        1.83190
C         -3.82670        2.56450        2.88570
C         -2.92460        1.56380        3.53060
O         -2.63680        1.64070        4.75370
O         -2.34370        0.58330        2.73120
C          0.11160       -1.92330       -1.38190
H          5.22150        1.82130        1.85920
H          4.31660        3.36620        1.81380
H          3.76560        2.00940        2.88770
H          3.38520        0.59330        0.83420
H          3.86670        1.96880       -0.20240
H          2.42610        4.11750       -0.19560
H          2.16770        4.19050        1.58820
H          0.75960        4.06350        0.49510
H          0.03080        1.94660        1.85390
H          1.20650        0.59890        2.07300
H          1.47680        2.18900        2.87410
H         -0.15010        0.09080       -2.25120
H          1.35690       -0.65850       -3.84730
H          2.36210        0.41970       -2.84360
H          3.50140       -1.71600       -3.44610
H          4.35700       -2.37030       -1.25920
H          4.11110       -0.58900       -1.28560
H          2.94150       -1.65820       -0.40950
H          2.45930       -3.82650       -3.15370
H          0.50610       -5.15190       -2.91480
H         -1.74520       -5.42450       -2.25380
H         -3.05240       -3.48180       -1.59680
H         -2.81620       -3.34900        0.78060
H         -2.24880       -4.96550        0.31740
H         -1.02900       -3.70500        0.71460
H         -1.66410       -1.83070       -2.58550
H         -3.33550       -1.21510       -0.73320
H         -2.23160        0.01630       -1.35880
H         -0.80020       -0.15050        0.68110
H         -1.76530       -1.48330        1.30990
H         -3.78220        0.00320        1.37580
H         -3.52690        1.73310       -0.18620
H         -1.80830        2.01510        0.17800
H         -3.95210        3.62530        1.02000
H         -1.87260        4.31650        1.00770
H         -3.98640        3.44030        3.55190
H         -4.81080        2.08770        2.68760
H          0.37320       -2.09730       -0.31600
