51

C          5.41730        0.21020       -1.00700
C          4.43780       -0.72180       -0.34600
O          4.64440       -1.92270       -0.43600
C          3.19510       -0.25770        0.40130
C          3.36970        0.98910        1.26320
C          1.94920        1.40020        1.61300
C          1.09260        0.99520        0.39950
C         -0.34590        0.52230        0.74010
C         -0.47190       -0.58100        1.77220
C         -1.65980       -1.16450        1.95750
C         -2.82050       -0.73700        1.14390
C         -4.02680       -0.67650        1.72510
C         -5.11790        0.11300        1.12850
O         -6.27850        0.02210        1.60880
C         -4.86610        1.05660       -0.01890
C         -3.36900        1.16580       -0.38220
C         -2.60560       -0.19040       -0.27490
C         -3.21960       -1.18000       -1.30770
C         -1.05750        0.05290       -0.55320
C         -0.29450       -1.16720       -1.17820
C          1.17460       -1.33750       -0.72860
C          1.92670       -0.00400       -0.46380
C          2.27190        0.65170       -1.82720
H          5.08950        1.26540       -0.98900
H          6.40000        0.13310       -0.49680
H          5.54310       -0.08370       -2.07030
H          2.96450       -1.06370        1.13720
H          3.96580        0.77440        2.17710
H          3.84480        1.82040        0.70490
H          1.64120        0.88330        2.54360
H          1.89220        2.49530        1.79960
H          0.95270        1.93790       -0.18070
H         -0.87770        1.40780        1.15060
H          0.37940       -0.92960        2.34070
H         -1.77860       -1.90840        2.73580
H         -4.17680       -1.09420        2.71430
H         -5.24430        2.06550        0.25340
H         -5.44950        0.72020       -0.90190
H         -3.28050        1.57490       -1.41280
H         -2.90990        1.91140        0.30120
H         -4.32500       -1.21540       -1.25480
H         -2.93820       -0.88700       -2.34180
H         -2.90270       -2.22520       -1.12100
H         -0.97280        0.87810       -1.29700
H         -0.78390       -2.12130       -0.90530
H         -0.32980       -1.08590       -2.28660
H          1.71970       -1.93850       -1.48940
H          1.17480       -1.96370        0.18950
H          2.87580       -0.03120       -2.46140
H          2.83610        1.59660       -1.68140
H          1.34440        0.89590       -2.38730
