23

O          5.48670       -0.30770        1.12280
C          4.33380        0.05700        0.77310
C          3.08470       -0.72880        1.02890
N          2.04880        0.12620        0.45920
N          0.72740       -0.30950        0.24890
C         -0.26810        0.49380        0.03180
C         -1.61570       -0.03820       -0.19520
C         -1.97490       -1.37550       -0.23160
C         -3.33320       -1.39490       -0.47150
C         -3.70670       -0.06860       -0.56450
N         -5.03280        0.40430       -0.80870
O         -5.25650        1.63000       -0.87320
O         -6.06990       -0.48400       -0.97410
O         -2.66970        0.71860       -0.39710
C          2.68470        1.26210       -0.13000
O          2.08820        2.13590       -0.81230
N          4.08420        1.26650        0.07130
H          2.91700       -0.86620        2.11790
H          3.12050       -1.70300        0.49670
H         -0.13440        1.56630        0.04990
H         -1.32810       -2.23310       -0.10000
H         -3.96670       -2.26690       -0.56590
H          4.78080        1.96210       -0.27650
