43

C          2.97090       -3.50420       -0.15970
C          2.76560       -2.05930       -0.60580
C          1.79380       -1.32280        0.32320
N          1.59290        0.06670       -0.15060
C          2.61920        0.97800        0.40660
C          2.91440        2.10800       -0.58690
C          3.98710        3.05150       -0.05050
C          0.22590        0.54390        0.16040
C         -0.73550        0.15170       -0.96700
C         -2.14660        0.55460       -0.62940
C         -2.67020        1.78340       -1.08390
C         -3.98670        2.16520       -0.76160
C         -4.79850        1.32750        0.01730
C         -4.26810        0.11760        0.45930
C         -2.97750       -0.26690        0.15010
C         -2.68030       -1.61130        0.74540
C         -3.98870       -1.89330        1.41960
O         -4.23530       -2.93960        2.07470
N         -4.93920       -0.84980        1.24430
H          3.67820       -4.00950       -0.85060
H          2.00600       -4.05440       -0.17500
H          3.39450       -3.53390        0.86680
H          2.35910       -2.05420       -1.64050
H          3.75050       -1.54650       -0.61790
H          2.17000       -1.33920        1.37200
H          0.83600       -1.89070        0.31950
H          2.29440        1.39670        1.38700
H          3.57590        0.43940        0.59020
H          1.99340        2.69440       -0.78950
H          3.26450        1.67020       -1.54700
H          4.17790        3.85660       -0.79100
H          3.65070        3.51610        0.90080
H          4.93490        2.49940        0.12530
H          0.19480        1.65330        0.24730
H         -0.12400        0.14200        1.13840
H         -0.41110        0.65260       -1.90550
H         -0.69520       -0.94100       -1.15930
H         -2.05980        2.44820       -1.68250
H         -4.37470        3.11120       -1.11640
H         -5.81150        1.61440        0.26740
H         -1.85860       -1.55250        1.48900
H         -2.47310       -2.36380       -0.04420
H         -5.91630       -0.80970        1.61010
