88

C         -7.99780       -4.52160        0.45390
C         -6.51230       -4.22950        0.24450
C         -6.17790       -2.73390        0.35360
C         -6.30010       -2.20390        1.79270
C         -5.84030       -0.73550        1.91850
C         -4.44490       -0.57410        2.55170
C         -3.27950       -1.14140        1.71850
C         -3.06270       -0.46320        0.35230
C         -2.55060        0.98140        0.47800
C         -2.37030        1.67820       -0.88350
C         -1.34090        1.02600       -1.82800
C          0.09720        1.01140       -1.27370
C          1.04710        0.37060       -2.31230
C          2.49790        0.12080       -1.83630
O          3.02130        1.19890       -1.07890
C          3.20990        0.31160        0.05310
O          3.65010        0.44800        1.22420
C          2.65050       -0.82100       -0.74700
C          3.68470       -1.92840       -1.01890
C          3.83660       -2.85860        0.19310
C          4.96850       -3.88570        0.02110
C          4.69830       -4.92430       -1.08800
C          5.48060       -4.61750       -2.37370
C          5.16040       -5.63060       -3.46880
O          0.50810        2.35660       -1.01400
C          0.81750        2.85500        0.25770
O          0.78210        2.10880        1.27450
C          1.19530        4.29860        0.40580
C          2.63880        4.42440        0.94450
C          3.28750        5.80420        0.67720
C          2.60820        6.93340        1.46590
C          4.78120        5.75450        1.02650
N          0.23690        4.94690        1.30510
C         -0.95800        5.57920        0.83350
O         -1.21060        5.65230       -0.39840
H         -8.29460       -4.31810        1.50350
H         -8.19610       -5.59330        0.24150
H         -8.61620       -3.90540       -0.23290
H         -6.22960       -4.57860       -0.77230
H         -5.91100       -4.81040        0.97730
H         -6.84310       -2.15060       -0.32030
H         -5.13840       -2.59560       -0.00600
H         -7.36760       -2.25660        2.09630
H         -5.72980       -2.85580        2.49010
H         -5.89880       -0.20330        0.94580
H         -6.55760       -0.21100        2.58750
H         -4.44430       -1.08200        3.54090
H         -4.26790        0.50040        2.76330
H         -2.34530       -1.04750        2.31410
H         -3.43640       -2.22950        1.56370
H         -2.30410       -1.06800       -0.18680
H         -3.99120       -0.48550       -0.25330
H         -1.60260        0.99840        1.05200
H         -3.28670        1.58270        1.05010
H         -2.07990        2.73600       -0.70410
H         -3.35370        1.70300       -1.40190
H         -1.66360       -0.00560       -2.08160
H         -1.34790        1.60100       -2.78020
H          0.10840        0.39640       -0.35160
H          1.08910        1.03060       -3.20630
H          0.62880       -0.60400       -2.64770
H          3.15970       -0.08890       -2.70830
H          1.70020       -1.21050       -0.32220
H          4.67220       -1.48480       -1.27980
H          3.32620       -2.52330       -1.88590
H          4.06570       -2.24950        1.09390
H          2.87700       -3.38780        0.38320
H          5.06920       -4.42890        0.98640
H          5.93470       -3.35970       -0.14380
H          5.01590       -5.92520       -0.72040
H          3.61010       -4.98950       -1.30900
H          6.57150       -4.65300       -2.16150
H          5.23450       -3.60150       -2.74560
H          4.07970       -5.59420       -3.72320
H          5.42500       -6.65660       -3.13520
H          5.74760       -5.39100       -4.38030
H          1.15280        4.77070       -0.60070
H          2.66510        4.19200        2.03240
H          3.26420        3.65530        0.43720
H          3.20610        6.03720       -0.40780
H          3.18180        7.87900        1.36010
H          1.59110        7.12730        1.06940
H          2.54190        6.67600        2.54470
H          5.26410        6.72840        0.79710
H          4.92330        5.52820        2.10540
H          5.29230        4.97240        0.42540
H          0.35300        4.84060        2.33840
H         -1.65760        5.99800        1.54450
