56

C         -1.48730       -0.31620       -2.69770
C         -1.85360       -0.17510       -1.19140
C         -2.94760        0.94550       -1.13020
C         -3.64910        0.96460        0.18070
C         -4.41060        1.95430        0.75770
N         -4.96310        1.44590        1.87700
N         -4.60400        0.17770        2.02280
C         -3.81820       -0.13200        0.97430
C         -3.13140       -1.43670        0.75380
C         -2.46930       -1.53190       -0.66100
C         -1.42880       -2.67610       -0.67140
C         -0.14790       -2.32750        0.10480
C          0.47380       -0.99300       -0.35500
C         -0.58350        0.16820       -0.31740
C          0.05990        1.55960       -0.62360
C          1.32840        1.84240        0.21740
C          2.36010        0.69280        0.09960
C          2.88810        0.62500       -1.37510
C          1.66410       -0.60180        0.54850
C          2.79550       -1.60250        0.73740
C          3.98690       -0.75600        1.22050
C          3.59080        0.74120        1.07290
C          3.27990        1.33610        2.47020
O          4.67480        1.45270        0.52050
H         -2.37370       -0.64570       -3.28140
H         -0.69020       -1.05530       -2.89350
H         -1.16060        0.65520       -3.12280
H         -3.72950        0.74670       -1.89610
H         -2.54390        1.94900       -1.36750
H         -4.56730        2.95880        0.38730
H         -5.59020        1.95700        2.53650
H         -3.87030       -2.25840        0.87130
H         -2.38550       -1.54560        1.56450
H         -3.28320       -1.82690       -1.36190
H         -1.16380       -2.93940       -1.71680
H         -1.87830       -3.59200       -0.22900
H          0.58380       -3.14790       -0.06030
H         -0.35140       -2.30150        1.19530
H          0.84980       -1.15790       -1.38040
H         -0.93090        0.24580        0.73710
H         -0.65820        2.36600       -0.37200
H          0.29270        1.66390       -1.70060
H          1.00240        1.97240        1.27130
H          1.78620        2.80090       -0.11010
H          3.65140       -0.17010       -1.50310
H          2.09750        0.44130       -2.12480
H          3.35820        1.59010       -1.65890
H          1.23200       -0.44320        1.56430
H          2.52420       -2.37470        1.49010
H          3.03800       -2.10450       -0.22480
H          4.24420       -1.02090        2.27010
H          4.87580       -0.99050        0.59380
H          3.00580        2.40890        2.39000
H          4.18440        1.27670        3.11290
H          2.46160        0.79140        2.98340
H          4.38060        2.39340        0.39760
