74

C          6.48460        2.70370       -0.14470
C          6.55870        1.36160       -0.15550
C          5.35700        0.51900        0.13370
C          4.11850        0.93740       -0.21110
C          2.87690        0.24410        0.20160
C          1.73190        0.22300       -0.51280
C          1.65200        0.73990       -1.93550
C          0.27030        1.31270       -2.24180
C         -0.83170        0.30340       -1.91470
C         -0.83250       -0.11480       -0.41290
C         -1.27960        1.07160        0.48000
C          0.56920       -0.59800        0.02730
C          0.65790       -2.06610       -0.39110
C         -0.77910       -2.56670       -0.51930
C         -1.70370       -1.38740       -0.16980
C         -3.07530       -1.46740       -0.91680
C         -3.81310       -2.78560       -0.62100
C         -3.97910       -0.29960       -0.58900
C         -4.43560       -0.06120        0.65280
C         -5.32990        1.12240        0.94920
C         -5.30200        1.43260        2.45540
C         -6.76440        0.89330        0.38460
C         -7.61580        2.17040        0.43850
C         -7.50570       -0.27200        1.06130
C          5.58460       -0.80740        0.83680
C          6.84980       -1.51300        0.33120
O          7.08380       -2.65020        1.11980
C          8.06040       -0.57200        0.40270
C          7.86090        0.65350       -0.49710
O          8.97390        1.49910       -0.33820
H          5.57570        3.21960        0.13490
H          7.33660        3.32470       -0.38490
H          4.01880        1.85040       -0.77900
H          2.89470       -0.26560        1.15800
H          1.86780       -0.09860       -2.63210
H          2.38630        1.54020       -2.14440
H          0.11560        2.25530       -1.67480
H          0.21750        1.56600       -3.32290
H         -1.80910        0.75500       -2.18880
H         -0.68790       -0.58740       -2.56490
H         -0.47730        1.83590        0.54910
H         -2.17940        1.57240        0.06940
H         -1.50290        0.73560        1.51500
H          0.59750       -0.57670        1.14340
H          1.21700       -2.65450        0.36930
H          1.17620       -2.17510       -1.36980
H         -0.95870       -3.42250        0.16810
H         -0.95120       -2.91100       -1.56330
H         -1.90650       -1.46730        0.92310
H         -2.89230       -1.44870       -2.01270
H         -3.93100       -2.93940        0.47270
H         -4.82010       -2.77660       -1.09130
H         -3.25660       -3.64880       -1.04180
H         -4.26600        0.36540       -1.39910
H         -4.13840       -0.71560        1.46780
H         -4.89070        2.00730        0.43510
H         -5.89930        2.33810        2.68540
H         -5.68590        0.57850        3.05140
H         -4.25700        1.63400        2.77570
H         -6.66390        0.63300       -0.69280
H         -8.56050        2.01850       -0.12620
H         -7.87750        2.43650        1.48390
H         -7.07100        3.01920       -0.02690
H         -8.45720       -0.47490        0.52480
H         -7.74900       -0.03310        2.11770
H         -6.89410       -1.19810        1.02950
H          5.66830       -0.61850        1.92910
H          4.74000       -1.50950        0.67220
H          6.68240       -1.82100       -0.72860
H          7.71200       -3.22750        0.61170
H          8.97010       -1.11840        0.07000
H          8.22220       -0.24680        1.45490
H          7.79440        0.29940       -1.55380
H          9.14700        1.92430       -1.21890
