54

C          7.19180        2.45130       -1.21070
C          6.78180        1.07860       -1.73590
C          5.26960        0.86560       -1.60660
C          4.86130       -0.51420       -2.13260
O          3.44730       -0.68630       -2.05120
C          2.76090       -0.90900       -0.85190
C          1.36740       -0.97910       -0.86550
C          0.65930       -1.18640        0.32740
C         -0.81750       -1.18620        0.26920
O         -1.40200       -1.92400       -0.57010
N         -1.57950       -0.31550        1.11910
C         -3.04050       -0.31180        1.13100
C         -3.58510        0.43300       -0.09210
N         -5.06460        0.48050       -0.04230
C         -5.58210        1.70990       -0.68650
C         -5.62450        2.85660        0.31980
C         -5.65750       -0.73220       -0.65250
C         -6.97870       -1.07500        0.02980
C          1.37950       -1.36820        1.53400
C          0.75070       -1.66580        2.76160
C          1.51030       -1.83040        3.92360
C          2.90070       -1.71560        3.87850
C          3.54230       -1.44920        2.66770
C          2.79400       -1.28510        1.49660
N          3.43400       -1.06000        0.31990
H          6.68410        3.25290       -1.78850
H          6.92610        2.54860       -0.13640
H          8.28980        2.57740       -1.31760
H          7.32080        0.29660       -1.15760
H          7.08250        0.99760       -2.80330
H          4.97630        0.96000       -0.53910
H          4.73250        1.64680       -2.18790
H          5.37720       -1.32150       -1.56760
H          5.15910       -0.59750       -3.19950
H          0.83840       -0.84480       -1.80170
H         -1.07740        0.32590        1.77390
H         -3.41590       -1.35640        1.16690
H         -3.39440        0.20510        2.04960
H         -3.23140       -0.04380       -1.03410
H         -3.14790        1.45610       -0.07100
H         -4.96480        1.99800       -1.56780
H         -6.62170        1.56720       -1.05580
H         -6.06140        3.75760       -0.16000
H         -6.25500        2.57360        1.18940
H         -4.60520        3.10840        0.67830
H         -4.99230       -1.61560       -0.52920
H         -5.81600       -0.60110       -1.74720
H         -6.81470       -1.22490        1.11810
H         -7.38920       -2.01210       -0.40200
H         -7.72250       -0.26490       -0.11630
H         -0.32060       -1.79220        2.83260
H          1.01890       -2.05460        4.86170
H          3.48320       -1.84540        4.78150
H          4.62270       -1.37820        2.63950
