18

C          0.02490        1.93310        0.02140
N         -0.09220        0.48900       -0.19860
C          1.02690       -0.21950       -0.83800
C          1.69110       -1.17880        0.11000
O          1.36200       -1.21850        1.32560
O          2.69650       -2.02370       -0.34920
C         -1.30300       -0.21830        0.14380
N         -1.65330       -1.26360       -0.53810
N         -2.09960        0.19840        1.25910
H         -0.93590        2.37920        0.35110
H          0.31250        2.43490       -0.92670
H          0.80250        2.13130        0.78860
H          1.79520        0.50090       -1.19390
H          0.65900       -0.77390       -1.72760
H          2.98820       -2.00950       -1.31930
H         -2.51410       -1.80840       -0.30790
H         -3.00360       -0.27780        1.47510
H         -1.75690        0.92540        1.92460
