17

N          2.90030        1.55530       -1.11420
N          1.56670        1.15130       -0.91660
C          1.12690        0.47810        0.27680
O          1.88910        0.42440        1.28060
C         -0.22300       -0.13170        0.35800
C         -0.91990       -0.51630       -0.80090
C         -2.18680       -1.09460       -0.68680
N         -2.74070       -1.29060        0.53830
C         -2.08960       -0.93850        1.67750
C         -0.82070       -0.35840        1.60980
H          3.50900        1.14050       -0.37310
H          3.21460        1.13400       -2.01740
H          0.86340        1.42660       -1.63750
H         -0.48780       -0.39660       -1.78530
H         -2.72760       -1.39400       -1.57460
H         -2.55720       -1.10910        2.63810
H         -0.31680       -0.08040        2.52730
