12

C         -1.32010       -0.13100        0.62480
C         -0.34710        0.16330       -0.52220
O         -0.12940        1.54710       -0.64410
C          0.95180       -0.57440       -0.33490
O          0.95810       -1.83440       -0.30150
O          2.15020        0.12420       -0.21370
H         -2.26130        0.43910        0.47430
H         -1.56730       -1.21380        0.65230
H         -0.87550        0.16230        1.60020
H         -0.80920       -0.19210       -1.46820
H          0.22170        1.87630        0.22520
H          3.02800       -0.36670       -0.09220
