62

C         -7.39860        3.30680       -0.96520
N         -6.31340        2.49000       -0.41520
C         -6.32130        2.18730        1.01830
C         -5.32030        1.89970       -1.27970
O         -5.54770        1.78370       -2.51440
C         -4.02390        1.43210       -0.75230
C         -3.16720        2.24400       -0.01110
C         -2.01510        1.51200        0.12020
C         -0.79210        1.81600        0.69810
N          0.20410        0.88960        0.60450
C          0.01830       -0.29890       -0.05600
N          1.06960       -1.27270       -0.12390
C          2.44150       -1.01190        0.20910
C          3.04540        0.22230       -0.07460
C          4.39010        0.41920        0.24140
C          5.14090       -0.61440        0.82560
N          6.53530       -0.42540        1.15530
C          7.48280       -1.54280        1.05060
C          8.91000       -1.01520        0.86980
N          9.31420       -0.11230        1.96230
C          8.23440        0.73990        2.50150
C          7.04140        0.89600        1.54860
C          4.50240       -1.84290        1.06610
N          3.19030       -2.00910        0.75240
N         -1.19510       -0.58370       -0.61800
C         -2.20040        0.32190       -0.51540
N         -3.44530        0.22790       -1.04290
C         -4.03800       -0.85930       -1.85790
C         -5.43570       -1.25380       -1.36700
C         -5.61400       -2.73520       -1.69920
C         -4.27180       -3.23190       -2.22130
C         -3.26220       -2.17420       -1.81930
H         -7.42400        4.28860       -0.44700
H         -7.26230        3.49730       -2.05030
H         -8.36960        2.78980       -0.81390
H         -5.45020        2.66190        1.51360
H         -7.24400        2.57340        1.50250
H         -6.28230        1.08800        1.17220
H         -3.33860        3.26070        0.31820
H         -0.62440        2.75830        1.20250
H          0.80260       -2.25860       -0.34500
H          2.49580        1.01580       -0.56300
H          4.84850        1.37070        0.00560
H          7.22980       -2.17400        0.17060
H          7.42570       -2.16640        1.96870
H          9.61290       -1.87450        0.83540
H          8.97750       -0.48350       -0.10650
H         10.08070        0.50380        1.60250
H          7.87290        0.28720        3.44980
H          8.63380        1.74750        2.75300
H          7.35050        1.46130        0.64310
H          6.24870        1.47090        2.07560
H          5.04050       -2.66740        1.51330
H         -4.10440       -0.52190       -2.91670
H         -5.51220       -1.10920       -0.26620
H         -6.22510       -0.65350       -1.86620
H         -5.90260       -3.29890       -0.78480
H         -6.40340       -2.87530       -2.46990
H         -4.30520       -3.31120       -3.33060
H         -4.00930       -4.22350       -1.79250
H         -2.92690       -2.40090       -0.78300
H         -2.39380       -2.16120       -2.51320
