39

C         -0.97300       -1.69510        1.19780
C         -0.61670       -0.47660        0.32050
C         -1.53530       -0.38720       -0.92030
C         -2.95310       -0.01830       -0.55420
C         -3.98410       -0.96950       -0.64580
C         -5.29560       -0.62220       -0.30720
C         -5.58900        0.67570        0.11970
C         -4.57140        1.62930        0.20750
C         -3.25850        1.28640       -0.12960
N          0.81540       -0.44230       -0.08850
C          1.29030       -1.69030       -0.72170
C          1.70960       -0.04090        1.02080
C          2.98370        0.55190        0.47820
C          2.93840        1.72310       -0.29640
C          4.11700        2.27700       -0.80540
C          5.34720        1.66760       -0.54400
C          5.40080        0.50340        0.22750
C          4.22450       -0.05390        0.73880
H         -0.95080       -2.63560        0.60820
H         -1.99530       -1.57520        1.61490
H         -0.27080       -1.78290        2.05180
H         -0.82780        0.43060        0.93010
H         -1.52950       -1.35320       -1.46880
H         -1.14030        0.38190       -1.61970
H         -3.77260       -1.98060       -0.97110
H         -6.08480       -1.35970       -0.37550
H         -6.60480        0.94270        0.38110
H         -4.80020        2.63510        0.53540
H         -2.48050        2.03680       -0.06250
H          2.29650       -1.53130       -1.16360
H          1.36020       -2.52090        0.01350
H          0.62740       -1.99380       -1.55580
H          1.23640        0.74000        1.65560
H          1.92470       -0.90630        1.68750
H          1.99060        2.20390       -0.50560
H          4.07660        3.17880       -1.40270
H          6.25870        2.09740       -0.93890
H          6.35420        0.03230        0.42900
H          4.28210       -0.95780        1.33240
