119

C        -12.63780       -1.69110        0.29400
O        -12.24660       -0.72190       -0.65340
C        -11.46980       -1.31560       -1.67810
C         -9.96880       -1.15640       -1.37840
C         -9.08420       -1.76150       -2.47750
C         -7.84070       -0.87350       -2.53130
C         -6.70480       -1.44520       -1.72630
N         -6.83410       -1.84110       -0.44140
C         -5.57920       -2.14460       -0.05960
C         -4.71130       -1.91110       -1.10980
C         -3.23330       -2.03790       -1.08650
C         -2.50650       -2.12370       -2.28300
C         -1.11410       -2.23120       -2.26600
C         -0.40850       -2.25930       -1.04670
C         -1.13550       -2.13660        0.15760
C         -2.53520       -2.05360        0.13170
C         -0.42560       -2.17840        1.48670
O          0.93900       -1.77790        1.37280
C          1.70920       -2.05300        0.24040
C          3.10250       -2.02510        0.34190
C          3.89130       -2.33700       -0.77030
C          3.27730       -2.68090       -2.00490
C          4.08050       -3.01170       -3.12720
C          5.48410       -2.99950       -3.03060
C          6.04630       -2.65370       -1.80510
N          7.34250       -2.57880       -1.48010
C          7.32960       -2.20360       -0.17770
C          8.57950       -2.02130        0.63850
C          8.78500       -3.18510        1.60540
C          8.25720       -2.70080        2.95180
C          8.29770       -1.16820        2.89080
C          7.00670       -0.55710        3.45230
N          8.46730       -0.83600        1.47810
C          8.65850        0.49140        0.94410
O          8.45200        0.69290       -0.28420
C          9.19850        1.63060        1.78410
N          8.37140        2.82180        1.55330
C          7.67810        3.51950        2.59580
O          7.79020        3.15280        3.79800
O          6.88270        4.62000        2.26550
C          6.16470        5.36700        3.24010
C         10.67880        1.92780        1.42380
C         11.57660        0.70420        1.67700
C         11.21350        3.12540        2.22580
N          6.07900       -2.05150        0.33350
C          5.28810       -2.33630       -0.71760
C          1.87760       -2.68530       -2.10060
C          1.08090       -2.34650       -0.98580
N         -5.43010       -1.47270       -2.15960
N         -8.24940        0.38860       -1.93890
C         -7.43080        1.56880       -1.99270
O         -6.69240        1.76370       -2.99690
C         -7.32550        2.48930       -0.80260
N         -6.87110        3.82500       -1.20920
C         -7.70640        4.72030       -1.95260
O         -8.87880        4.37940       -2.27290
O         -7.20880        5.97380       -2.31880
C         -7.97530        6.91610       -3.05910
C         -6.37400        1.87720        0.20620
C         -5.01710        1.67490       -0.11540
C         -4.15380        1.07170        0.80320
C         -4.63510        0.65280        2.04530
C         -5.98000        0.84150        2.37300
C         -6.84680        1.45100        1.46030
C         -9.53380        0.30930       -1.26170
H        -11.75980       -2.21970        0.72630
H        -13.34590       -2.42050       -0.15740
H        -13.16510       -1.18030        1.12550
H        -11.70780       -0.79370       -2.63000
H        -11.71100       -2.39230       -1.84980
H         -9.73040       -1.67490       -0.42300
H         -8.84410       -2.82740       -2.26650
H         -9.59970       -1.70910       -3.46240
H         -7.52970       -0.72030       -3.58850
H         -5.32300       -2.49710        0.92990
H         -3.01090       -2.11880       -3.23990
H         -0.60650       -2.26870       -3.21760
H         -3.07150       -1.97680        1.06860
H         -0.93000       -1.50690        2.21400
H         -0.46530       -3.21520        1.88240
H          3.56170       -1.77770        1.29170
H          3.62190       -3.27590       -4.07240
H          6.10470       -3.25030       -3.88100
H          8.17000       -2.76950       -2.08810
H          9.46390       -1.93240       -0.03140
H          9.87380       -3.39440        1.69800
H          8.27420       -4.11800        1.27770
H          8.88180       -3.08660        3.78690
H          7.21820       -3.07790        3.08330
H          9.17570       -0.81010        3.47060
H          6.12490       -0.89910        2.87020
H          7.04160        0.54880        3.40930
H          6.87730       -0.85880        4.51320
H          9.16770        1.35930        2.85700
H          8.29940        3.20330        0.58260
H          5.61040        6.18540        2.73670
H          6.86980        5.80910        3.97560
H          5.43880        4.70970        3.76410
H         10.74460        2.18600        0.34300
H         11.51130        0.38360        2.73900
H         12.63470        0.94690        1.44130
H         11.27790       -0.14420        1.02650
H         11.13160        2.93330        3.31730
H         12.27930        3.31330        1.97440
H         10.64560        4.04690        1.97880
H          1.42750       -2.96570       -3.04160
H         -5.08110       -1.14890       -3.08860
H         -8.32940        2.60370       -0.34110
H         -5.91050        4.15370       -0.96060
H         -7.36790        7.82910       -3.22640
H         -8.89010        7.19120       -2.49250
H         -8.25830        6.48660       -4.04350
H         -4.63030        1.97680       -1.08050
H         -3.11310        0.91980        0.54760
H         -3.96680        0.17750        2.75160
H         -6.35250        0.51190        3.33420
H         -7.88740        1.58070        1.73000
H        -10.25030        0.99910       -1.75880
H         -9.43100        0.58360       -0.19040
