57

C         -4.95300        1.43520        0.17380
C         -4.77860       -0.03220       -0.11250
O         -5.63720       -0.58680       -0.78230
C         -3.57350       -0.85280        0.34660
C         -3.11610       -0.49050        1.76640
C         -1.88940        0.41410        1.62060
C         -1.58200        0.51290        0.11190
C         -0.08570        0.71710       -0.30860
C          0.66850        1.68530        0.64860
C          1.78180        0.99510        1.43780
C          2.33870        1.94530        2.51320
C          2.77940        0.49560        0.41300
C          4.02650        1.01210        0.31950
C          4.86250        0.80790       -0.87540
O          6.06590        1.17910       -0.85900
C          4.30210        0.18520       -2.12030
C          2.77530        0.01660       -2.03910
C          2.28100       -0.49290       -0.64840
C          2.94630       -1.86740       -0.35740
C          0.68140       -0.60080       -0.69870
C          0.04350       -1.86100       -0.05480
O          0.19590       -1.85470        1.33900
C         -1.44350       -2.01890       -0.44260
C         -2.29480       -0.69570       -0.53290
C         -2.62950       -0.40570       -2.02000
H         -4.14590        1.84770        0.80590
H         -5.91650        1.59380        0.70180
H         -4.97140        1.99790       -0.78280
H         -3.91700       -1.91260        0.35070
H         -2.81900       -1.41830        2.30400
H         -3.91750       -0.00290        2.36350
H         -1.04230        0.00450        2.20210
H         -2.11570        1.41990        2.03760
H         -2.10750        1.43480       -0.22820
H         -0.14910        1.28340       -1.26810
H         -0.02660        2.20540        1.33920
H          1.12590        2.50370        0.04520
H          1.37520        0.12660        1.98770
H          2.69960        2.89470        2.06240
H          1.54140        2.19210        3.24660
H          3.16550        1.45440        3.06960
H          4.42310        1.67800        1.07170
H          4.78570       -0.80140       -2.28340
H          4.54930        0.82590       -2.99400
H          2.30070        1.00020       -2.25500
H          2.46230       -0.68450       -2.84410
H          2.70960       -2.59810       -1.16000
H          4.05110       -1.79210       -0.29320
H          2.62030       -2.27060        0.62320
H          0.43690       -0.76390       -1.77310
H          0.54480       -2.76660       -0.46540
H          0.07900       -2.78970        1.65230
H         -1.88750       -2.74780        0.26960
H         -1.48200       -2.55260       -1.41910
H         -3.27880       -1.20840       -2.43050
H         -3.15410        0.56510       -2.14330
H         -1.70500       -0.36070       -2.63150
