42

C          5.19070       -0.52450        0.28040
N          3.83000       -1.08130        0.21020
C          3.64900       -1.76600       -1.08290
C          2.82480       -0.01030        0.38670
C          1.54130       -0.57780        1.00250
C          0.49320        0.49900        1.11700
C         -0.68230        0.50130        0.45630
C         -1.66850        1.56020        0.72180
C         -1.29920        2.90550        0.54470
C         -2.21410        3.92890        0.79460
C         -3.50190        3.62140        1.23090
C         -3.87870        2.28950        1.41620
C         -2.97760        1.24380        1.14940
C         -3.41830       -0.14150        1.44700
C         -3.06780       -1.25130        0.77950
C         -2.18400       -1.31690       -0.40850
C         -2.46620       -2.28900       -1.38420
C         -1.65890       -2.41870       -2.51630
C         -0.55560       -1.58390       -2.68640
C         -0.24890       -0.62800       -1.71780
C         -1.03880       -0.50530       -0.56050
H          5.34200        0.26640       -0.48830
H          5.94550       -1.32680        0.13050
H          5.37390       -0.09260        1.28770
H          2.63260       -2.20440       -1.15820
H          4.37020       -2.60670       -1.17290
H          3.80200       -1.06790       -1.93630
H          2.60250        0.49760       -0.57940
H          3.20190        0.77490        1.08210
H          1.76610       -0.95430        2.02340
H          1.17770       -1.44670        0.42040
H          0.69670        1.29440        1.82550
H         -0.30210        3.16060        0.20640
H         -1.92290        4.96180        0.65340
H         -4.20840        4.41630        1.43220
H         -4.88040        2.07340        1.76820
H         -4.16220       -0.25930        2.22690
H         -3.55900       -2.17160        1.07450
H         -3.32280       -2.94340       -1.27460
H         -1.89270       -3.16460       -3.26490
H          0.06410       -1.67850       -3.56880
H          0.60730        0.01650       -1.86860
