28

N         -5.04090        0.22340        0.77080
C         -3.62820        0.04090        0.67540
C         -2.83390        0.98090        0.02280
C         -1.46000        0.76190       -0.04610
N         -0.89790       -0.34660        0.52970
C          0.55840       -0.57380        0.41490
C          0.90230       -1.19150       -0.93760
C          1.61470       -0.09110       -1.66250
C          2.10660        0.81150       -0.53960
C          3.55370        0.50280       -0.13170
O          4.42640        0.81780       -1.18150
O          1.25980        0.64420        0.57550
C         -1.70980       -1.26820        1.14530
O         -1.22920       -2.31930        1.64890
N         -3.05090       -1.06130        1.21570
H         -5.63100       -0.48690        1.25830
H         -5.50320        1.06420        0.35810
H         -3.26990        1.86350       -0.42800
H         -0.84770        1.48750       -0.56730
H          0.90770       -1.25710        1.22060
H          0.00360       -1.53050       -1.49890
H          1.58910       -2.05570       -0.79730
H          0.89020        0.46560       -2.29740
H          2.43260       -0.48360       -2.30570
H          2.05250        1.87220       -0.87000
H          3.81570        1.11440        0.76060
H          3.65240       -0.57350        0.13630
H          5.33700        0.58840       -0.86040
