46

C          1.09000        0.44750       -2.17750
C          0.87760       -0.40170       -0.91490
C          0.34180        0.45820        0.21600
C         -0.87160        0.35610        0.79050
C         -1.94640       -0.63550        0.43010
C         -2.69120       -0.21150       -0.84270
N         -3.64510       -1.26220       -1.26120
C         -4.92040       -1.14160       -0.53250
C         -3.90020       -1.17290       -2.70830
C         -1.04840        1.35050        1.90840
C          0.26560        2.04320        1.88820
C          0.70870        3.06800        2.72530
C          2.01150        3.56000        2.54940
C          2.84530        3.01840        1.55280
C          2.38000        1.98540        0.72320
C          1.07350        1.51920        0.90670
C          2.12650       -1.13680       -0.47720
C          2.06270       -2.05740        0.58180
C          3.21940       -2.73000        0.97970
C          4.42530       -2.48830        0.32070
C          4.45510       -1.57410       -0.73370
N          3.31880       -0.92740       -1.10650
H          1.40590       -0.20110       -3.02250
H          0.14190        0.94870       -2.46570
H          1.86230        1.22780       -2.02120
H          0.13630       -1.17920       -1.19100
H         -1.50990       -1.64990        0.31130
H         -2.66590       -0.69130        1.27310
H         -3.20700        0.76190       -0.67470
H         -1.93520       -0.03930       -1.63930
H         -4.75990       -1.25440        0.55910
H         -5.40880       -0.16080       -0.72860
H         -5.61380       -1.95450       -0.83840
H         -4.62520       -1.95460       -3.02280
H         -2.96120       -1.35830       -3.27320
H         -4.30050       -0.17180       -2.98520
H         -1.87400        2.05830        1.68330
H         -1.20610        0.83350        2.87870
H          0.06500        3.47130        3.49620
H          2.37830        4.35400        3.18670
H          3.85160        3.39680        1.42840
H          3.03080        1.56580       -0.02920
H          1.12740       -2.24780        1.09370
H          3.18080       -3.43830        1.79720
H          5.32690       -3.00550        0.62220
H          5.38170       -1.37820       -1.25650
