51

C         -6.83410       -0.26350       -0.97460
C         -5.39520       -0.64010       -0.58410
C         -4.67260       -1.27730       -1.77120
N         -4.62810        0.53790       -0.13490
C         -4.79240        0.81570        1.30100
C         -3.75610        0.03860        2.14000
O         -4.03320        0.19320        3.50930
C         -2.31190        0.47530        1.84140
O         -1.94180        0.07710        0.52310
C         -0.69410        0.33100       -0.06350
C          0.34130        0.99580        0.62060
C          1.56770        1.22590       -0.00970
C          1.77580        0.80450       -1.33220
C          3.10890        1.02150       -1.99920
C          4.02280       -0.19750       -1.82750
O          4.22980       -0.48870       -0.45620
C          5.37880        0.16830        0.04380
C          6.61330       -0.72430       -0.14120
C          6.84310       -1.75430        0.95380
C          7.72440       -0.51630        0.87630
C          0.74690        0.13220       -2.00890
C         -0.47900       -0.09740       -1.37840
H         -6.83670        0.45620       -1.82120
H         -7.39680       -1.17210       -1.27790
H         -7.36210        0.19680       -0.11410
H         -5.44340       -1.40920        0.21940
H         -4.59370       -0.55610       -2.61290
H         -5.21900       -2.18070       -2.11710
H         -3.64930       -1.58380       -1.46670
H         -4.91420        1.38330       -0.68340
H         -4.65620        1.90550        1.48270
H         -5.81900        0.56140        1.64650
H         -3.84230       -1.04430        1.90730
H         -3.94230        1.15820        3.72700
H         -2.22170        1.57920        1.94220
H         -1.62990       -0.01060        2.57290
H          0.21040        1.33460        1.63910
H          2.35690        1.73010        0.53450
H          3.60270        1.92630       -1.58430
H          2.95740        1.20910       -3.08460
H          4.97340       -0.04140       -2.38940
H          3.53280       -1.07760       -2.29600
H          5.20160        0.38450        1.11970
H          5.56230        1.15670       -0.43690
H          6.94840       -1.01950       -1.15820
H          6.12060       -1.74340        1.79800
H          7.34330       -2.68480        0.61160
H          8.74610       -0.71650        0.49000
H          7.52730        0.22870        1.67680
H          0.89510       -0.21530       -3.02400
H         -1.26610       -0.61290       -1.91390
