52

C         -3.55890        0.55580       -1.71600
C         -2.73360        0.77500       -0.42430
C         -3.19140        2.13110        0.10870
C         -3.81440        2.28570        1.27770
C         -4.07710        1.13140        2.13580
O         -4.67330        1.28280        3.23440
C         -3.63600       -0.19990        1.71500
C         -3.00760       -0.37920        0.54220
C         -2.53770       -1.75430        0.14450
C         -1.04640       -1.73450       -0.19700
C         -0.66440       -0.60070       -1.20050
C         -1.19310        0.79780       -0.74970
C         -0.31760        1.34910        0.37440
O         -0.60630        2.40050        0.92570
C          0.98220        0.68390        0.74760
C          1.78450        0.21650       -0.50710
C          2.38330        1.49040       -1.17210
C          0.85960       -0.50700       -1.55860
C          1.51330       -1.85890       -1.84890
C          2.30860       -2.18560       -0.60470
C          2.91250       -0.84700       -0.14950
O          4.06730       -0.66250       -0.94450
C          3.32910       -0.91420        1.33420
O          3.14940       -1.93940        1.97730
C          4.01140        0.23380        2.03080
O          3.31010        0.55660        3.19920
H         -3.33780       -0.40650       -2.21550
H         -4.64640        0.56250       -1.48280
H         -3.35880        1.36550       -2.45130
H         -3.01430        3.01130       -0.49890
H         -4.12380        3.27370        1.59550
H         -3.81990       -1.03880        2.37590
H         -2.70390       -2.49410        0.95870
H         -3.11970       -2.11110       -0.73050
H         -0.48470       -1.66340        0.74770
H         -0.80880       -2.72730       -0.62830
H         -1.16900       -0.86190       -2.15530
H         -1.04970        1.49580       -1.60550
H          1.59150        1.41110        1.32640
H          0.78270       -0.14240        1.45240
H          3.07920        2.01690       -0.48840
H          2.92970        1.23950       -2.10650
H          1.57790        2.20450       -1.44740
H          0.88490        0.05250       -2.52330
H          2.21970       -1.75140       -2.70300
H          0.79850       -2.66210       -2.12010
H          3.09340       -2.94370       -0.82200
H          1.61970       -2.60490        0.15930
H          4.58190        0.11140       -0.60090
H          5.04770       -0.07570        2.29110
H          4.06920        1.12680        1.37650
H          3.80720        1.30460        3.62160
