41

C         -1.97780        2.29010       -1.19490
C         -3.07480        1.83750       -0.58030
C         -3.04350        1.33250        0.83640
C         -3.36020       -0.14190        0.87460
C         -4.59120       -0.58060        1.39230
C         -4.89450       -1.94280        1.43610
C         -3.97440       -2.87990        0.96570
C         -2.74710       -2.45950        0.44860
C         -2.42820       -1.08800        0.39720
O         -1.20520       -0.63040       -0.11740
C         -0.17310       -1.46630       -0.63420
C          0.99370       -0.60340       -1.13160
O          1.96490       -1.42570       -1.72470
C          1.63000        0.18580        0.02200
N          2.68490        1.07220       -0.49890
C          4.04570        0.56810       -0.23410
C          4.50980        0.91540        1.19050
C          5.00620        1.16430       -1.26390
H         -2.03580        2.63640       -2.22150
H         -1.01840        2.31580       -0.68740
H         -4.01500        1.81560       -1.12380
H         -3.79080        1.91080        1.42100
H         -2.05500        1.51120        1.31440
H         -5.31880        0.13190        1.76060
H         -5.84500       -2.27240        1.83560
H         -4.21270       -3.93510        1.00170
H         -2.05350       -3.20830        0.09170
H         -0.57390       -2.05870       -1.48540
H          0.18200       -2.16240        0.15710
H          0.60540        0.12610       -1.88140
H          1.62840       -1.66280       -2.62840
H          0.84460        0.80440        0.51190
H          2.01240       -0.51800        0.79540
H          2.57400        2.02910       -0.08660
H          4.08040       -0.53810       -0.35760
H          5.52460        0.50130        1.37190
H          4.54300        2.01650        1.33590
H          3.82120        0.47860        1.94290
H          4.67760        0.88820       -2.28850
H          5.02730        2.27240       -1.18250
H          6.03310        0.76990       -1.10770
