54

C         -4.84930        1.74200       -0.85260
C         -3.87240        0.55960       -0.87050
C         -2.45480        1.02680       -0.46030
C         -1.40570       -0.13370       -0.24150
C         -0.94580       -0.59890       -1.64540
C         -2.08170       -1.37000        0.51580
C         -1.21070       -2.01010        1.62130
C          0.25410       -2.06590        1.21550
C          0.84430       -0.64520        1.14690
C          2.30140       -0.64300        0.57930
C          2.56710       -1.47400       -0.68190
C          3.81540       -0.87770       -1.33110
C          4.13950        0.40580       -0.55920
O          4.50320        1.45070       -1.42590
C          2.87140        0.74420        0.26040
C          3.25710        1.51960        1.54200
C          1.85620        1.54240       -0.59820
C          0.50140        1.73090        0.08580
C         -0.17620        0.42410        0.60110
C         -3.46130       -1.04330        1.11920
C         -4.35890       -0.53560        0.03720
O         -5.45340       -1.04850       -0.14410
H         -4.95530        2.14870        0.17640
H         -5.84920        1.42110       -1.21550
H         -4.48440        2.54980       -1.52230
H         -3.84110        0.16200       -1.90720
H         -2.10990        1.72260       -1.25440
H         -2.54260        1.62470        0.47440
H         -1.81720       -0.80990       -2.29780
H         -0.33490        0.17360       -2.15210
H         -0.38710       -1.54800       -1.59810
H         -2.26830       -2.18160       -0.22610
H         -1.56930       -3.04430        1.82010
H         -1.30090       -1.44170        2.57440
H          0.81660       -2.65980        1.96920
H          0.34030       -2.60380        0.25070
H          0.99260       -0.36000        2.21590
H          2.94530       -1.09980        1.36940
H          1.73470       -1.38820       -1.39810
H          2.72270       -2.54640       -0.43190
H          3.61770       -0.65760       -2.40390
H          4.66680       -1.59050       -1.26820
H          4.98720        0.18650        0.13390
H          5.40260        1.22450       -1.78040
H          4.02580        0.96740        2.12420
H          2.38330        1.66350        2.20910
H          3.67080        2.51620        1.27810
H          1.70130        1.04640       -1.57860
H          2.26980        2.55070       -0.82060
H         -0.14320        2.28840       -0.61540
H          0.64220        2.42570        0.94220
H         -0.69030        0.77430        1.52810
H         -3.90540       -1.95120        1.58550
H         -3.36150       -0.26320        1.90500
