34

N          2.70040        2.43700        0.70020
C          1.53740        2.36780       -0.17930
N          0.61730        3.46760        0.11440
C         -0.71040        2.86890        0.10520
C         -0.52050        1.41350        0.52290
C         -1.59020        0.42200        0.06160
C         -2.75220        0.82320       -0.63800
C         -3.71970       -0.11170       -1.01250
C         -3.56280       -1.45490       -0.68110
C         -2.44670       -1.86720        0.04410
C         -1.47110       -0.93660        0.44090
C         -0.26910       -1.41000        1.21090
C          0.92990       -1.38920        0.30800
C          1.56480       -2.60720        0.00140
C          2.66410       -2.64100       -0.85450
C          3.14190       -1.46280       -1.42010
C          2.52550       -0.24580       -1.12820
C          1.41530       -0.18040       -0.25930
N          0.82070        1.11370        0.03140
H          2.36980        2.49610        1.69120
H          3.20780        3.32520        0.48590
H         -1.09260        2.95430       -0.93310
H         -1.38320        3.40920        0.80470
H         -0.49560        1.40270        1.63470
H         -2.94560        1.85500       -0.88620
H         -4.59940        0.20940       -1.55540
H         -4.31340       -2.17650       -0.97680
H         -2.34530       -2.91480        0.29970
H         -0.44910       -2.43060        1.61570
H         -0.08440       -0.77150        2.09910
H          1.20480       -3.53850        0.42120
H          3.14310       -3.58420       -1.08390
H          3.99200       -1.49150       -2.08960
H          2.91670        0.64860       -1.59460
