37

C         -1.41180       -2.99690       -0.60220
C         -2.05600       -1.77210        0.04920
C         -1.39220       -0.44940       -0.40870
C         -2.14140        0.81260        0.00370
C         -3.13060        0.82710        1.01160
C         -3.77590        2.01940        1.35420
C         -3.44580        3.20930        0.70320
C         -2.46720        3.21120       -0.29180
C         -1.81830        2.02320       -0.63900
C          0.06810       -0.36920        0.04150
C          1.11770       -0.41850       -0.90330
O          0.79290       -0.54640       -2.25930
C          2.45850       -0.34240       -0.45440
C          3.57200       -0.38230       -1.32250
C          4.87110       -0.30380       -0.81150
C          5.08220       -0.18490        0.56200
C          3.99450       -0.14340        1.43380
C          2.68880       -0.22070        0.93680
O          1.67370       -0.17760        1.78780
C          0.40570       -0.24410        1.40720
O         -0.49110       -0.18830        2.28950
H         -1.95690       -3.91250       -0.28990
H         -0.35200       -3.09570       -0.28570
H         -1.45870       -2.91780       -1.70910
H         -1.99860       -1.89020        1.15150
H         -3.13000       -1.76030       -0.23950
H         -1.45410       -0.46790       -1.51830
H         -3.40530       -0.07050        1.54670
H         -4.53190        2.02080        2.12890
H         -3.94680        4.13040        0.97170
H         -2.20960        4.13460       -0.79440
H         -1.05930        2.04510       -1.41160
H          1.46300       -0.59650       -3.01190
H          3.47070       -0.47220       -2.39180
H          5.71840       -0.33520       -1.48470
H          6.09040       -0.12460        0.95120
H          4.16570       -0.05040        2.49900
