22

N          3.59340        0.58110        0.29520
C          2.21080        0.59700       -0.17790
C          1.57590       -0.80140       -0.09010
C          0.17120       -0.85440       -0.71130
C         -0.87800       -0.11620        0.13360
C         -2.28210       -0.30200       -0.45230
C         -3.30730        0.41040        0.37940
O         -4.17200       -0.25050        1.01260
O         -3.32380        1.80070        0.45030
H          4.14570       -0.08260       -0.29530
H          3.61020        0.22300        1.27800
H          2.19510        0.95370       -1.23070
H          1.63500        1.31770        0.43980
H          1.53230       -1.13100        0.97100
H          2.22090       -1.52150       -0.63930
H         -0.12440       -1.92320       -0.79670
H          0.19730       -0.42960       -1.73890
H         -0.86110       -0.51130        1.17350
H         -0.63650        0.96720        0.16210
H         -2.31880        0.09870       -1.48820
H         -2.52510       -1.38690       -0.49100
H         -2.65850        2.36120       -0.06850
