33

O         -7.93200       -0.52800       -0.48230
C         -6.72770       -0.36410       -0.15430
C         -5.56200       -0.63340       -1.05540
N         -4.42130       -0.31410       -0.20370
N         -3.11000       -0.18550       -0.69770
C         -2.05370       -0.20060        0.05560
C         -0.71980       -0.04400       -0.53280
C         -0.43100        0.15260       -1.86930
C          0.94230        0.24320       -1.94570
C          1.40820        0.09600       -0.64720
C          2.81950        0.11820       -0.19610
C          3.11420       -0.04730        1.16700
C          4.43750       -0.03010        1.61650
C          5.49710        0.15330        0.71120
N          6.86140        0.17180        1.16970
O          7.12850        0.02520        2.38060
O          7.89580        0.35160        0.28010
C          5.20280        0.31890       -0.65240
C          3.87920        0.30170       -1.10220
O          0.38950       -0.07300        0.16740
C         -4.92070        0.16370        1.04700
O         -4.20120        0.63850        1.96460
N         -6.33180        0.11720        1.12210
H         -5.53160       -1.70110       -1.35840
H         -5.58780        0.03960       -1.93860
H         -2.13010       -0.36460        1.12130
H         -1.13240        0.22210       -2.69050
H          1.51850        0.39820       -2.84710
H          2.31980       -0.19060        1.88910
H          4.63130       -0.16040        2.67350
H          5.99670        0.46210       -1.37400
H          3.69460        0.43260       -2.15920
H         -6.94370        0.43040        1.90800
