28

N          4.37250        1.16260       -1.50680
C          3.00770        0.64590       -1.50340
C          2.60610        0.22360       -0.08960
N          1.21530       -0.24360       -0.08170
C          0.79370       -0.56700        1.28700
C         -0.68370       -0.96530        1.30910
N         -1.51650        0.13510        0.80890
C         -2.92300       -0.27900        0.73990
C         -3.78510        0.83500        0.12940
N         -3.42190        1.10700       -1.26080
H          5.02520        0.36320       -1.33540
H          4.57790        1.51100       -2.47120
H          2.31470        1.44100       -1.85650
H          2.93090       -0.22270       -2.19550
H          3.28620       -0.58550        0.26210
H          2.71570        1.10300        0.58400
H          1.16990       -1.12470       -0.64700
H          1.40030       -1.41050        1.68780
H          0.93440        0.31400        1.95260
H         -0.97230       -1.22270        2.35340
H         -0.81730       -1.86990        0.67460
H         -1.44830        0.92590        1.49290
H         -3.30460       -0.50650        1.76100
H         -3.02740       -1.19530        0.11680
H         -4.85260        0.52840        0.16860
H         -3.68030        1.76590        0.72790
H         -3.48870        0.21940       -1.81020
H         -2.42890        1.43280       -1.29790
