31

C         -4.41860        0.89420       -1.18860
C         -3.32410        0.37050       -0.29900
C         -1.99030        0.52130       -0.68900
N         -0.96940        0.06490        0.09800
C          0.42110        0.23580       -0.37440
C          0.97650       -1.06180       -0.94910
C          2.43540       -0.98440       -0.58720
O          3.19310       -0.41290       -1.63030
C          2.41440       -0.12310        0.68250
C          3.66480        0.74210        0.88380
O          4.80830       -0.06680        0.91450
O          1.25930        0.68980        0.67000
C         -1.26160       -0.57840        1.27640
O         -0.34010       -1.03990        2.00370
N         -2.55430       -0.73230        1.67280
C         -3.58570       -0.27300        0.91790
O         -4.77010       -0.43420        1.31960
H         -4.29300        1.98880       -1.32660
H         -5.42820        0.71070       -0.76610
H         -4.36100        0.39720       -2.17990
H         -1.77590        1.00980       -1.63340
H          0.46170        1.01110       -1.17390
H          0.81440       -1.13080       -2.04730
H          0.51700       -1.94690       -0.45600
H          2.83890       -1.99740       -0.36850
H          2.79140        0.46430       -1.86570
H          2.33660       -0.80480        1.55930
H          3.57150        1.28670        1.85000
H          3.74970        1.49630        0.07030
H          5.57690        0.54830        1.04040
H         -2.75850       -1.21910        2.57590
