42

C          4.20090       -0.62390       -2.53920
N          4.03150       -1.38670       -1.29920
C          3.45960       -0.55590       -0.22940
C          1.92830       -0.56590       -0.30040
C          1.31500        0.21370        0.86930
N         -0.15510        0.22450        0.78040
C         -0.83530        1.48630        0.78310
C         -0.73400        2.34600        1.88710
C         -1.40400        3.57260        1.88410
C         -2.17480        3.94560        0.77950
C         -2.27090        3.09560       -0.32640
C         -1.59010        1.86720       -0.33080
C         -1.67080        0.93550       -1.50100
C         -2.53740       -0.27740       -1.16570
C         -2.03600       -1.22580       -0.08240
C         -2.75890       -2.42850        0.04080
C         -2.39920       -3.39710        0.97510
C         -1.31440       -3.18280        1.81650
C         -0.58780       -1.99730        1.73070
C         -0.92410       -1.00090        0.79120
H          4.63960       -1.28360       -3.31720
H          3.22160       -0.26170       -2.91550
H          4.88670        0.23840       -2.38550
H          4.98590       -1.69030       -0.99380
H          3.76560       -0.97810        0.75420
H          3.84440        0.48880       -0.27240
H          1.57340       -1.61880       -0.27590
H          1.59460       -0.10480       -1.25290
H          1.70790        1.25500        0.84250
H          1.63730       -0.22470        1.83610
H         -0.14490        2.05890        2.74890
H         -1.32890        4.23220        2.73890
H         -2.69680        4.89370        0.78000
H         -2.87070        3.39600       -1.17640
H         -2.11120        1.45840       -2.37820
H         -0.65500        0.60520       -1.80510
H         -2.64590       -0.85970       -2.10740
H         -3.55520        0.07380       -0.88580
H         -3.61000       -2.62240       -0.60160
H         -2.96660       -4.31600        1.04810
H         -1.04140       -3.93310        2.54740
H          0.22710       -1.85190        2.42510
