26

C          3.76450       -0.34920       -0.36480
C          2.38090        0.09000       -0.73190
C          2.04790        0.83230       -1.85390
C          0.67870        0.96370       -1.76600
O         -0.04870        1.55970       -2.60470
N          0.21780        0.33780       -0.66440
C         -1.16120        0.23490       -0.26680
C         -1.94720        1.39140       -0.13860
C         -3.29050        1.29220        0.23710
C         -3.85900        0.03860        0.47970
C         -3.08580       -1.11770        0.34320
C         -1.74210       -1.02190       -0.03210
N          1.25900       -0.18460       -0.02320
C          1.19350       -0.95170        1.22340
H          3.79500       -1.45570       -0.28480
H          4.05430        0.10010        0.60760
H          4.49370       -0.02550       -1.13730
H          2.70570        1.21000       -2.62580
H         -1.51500        2.36750       -0.31910
H         -3.89050        2.18700        0.34050
H         -4.89900       -0.03700        0.76960
H         -3.52880       -2.08860        0.52340
H         -1.15900       -1.92530       -0.15390
H          1.06700       -2.02950        0.99170
H          0.34680       -0.60290        1.85030
H          2.12220       -0.81550        1.81520
