56

C          3.64640        2.29340        3.88800
C          3.33040        2.04390        2.45030
C          2.88870        0.83430        1.92120
C          2.68460        1.08670        0.58080
C          2.16190        0.27190       -0.42450
O          1.80750       -1.05400       -0.13160
C          0.67470       -1.72830       -0.68410
C         -0.60160       -1.34500        0.08400
C         -1.85000       -1.95820       -0.56230
N         -1.78690       -3.42910       -0.50000
C         -2.75130       -4.14290       -1.37430
C         -2.66850       -5.64830       -1.04490
C         -4.20350       -3.66930       -1.13770
C         -2.37040       -3.96310       -2.86030
O         -0.73800        0.07780        0.09440
C         -0.69100        0.86110        1.25580
O         -0.75790        0.32010        2.39390
C         -0.51410        2.32380        1.14180
C         -0.20260        3.09890        2.27440
C          0.02790        4.47210        2.14890
C         -0.05490        5.08510        0.89670
C         -0.37050        4.32640       -0.23260
C         -0.59830        2.95210       -0.11350
C          2.00410        0.84590       -1.70860
C          2.34920        2.19630       -1.93720
C          2.84920        2.99290       -0.89280
C          3.00250        2.40270        0.35910
N          3.40250        2.99830        1.49430
H          3.50310        1.36910        4.48670
H          2.97540        3.08550        4.28120
H          4.70080        2.62620        3.98330
H          2.70520       -0.09070        2.45230
H          0.84280       -2.82110       -0.57940
H          0.56620       -1.51780       -1.76740
H         -0.50890       -1.74130        1.11970
H         -2.74480       -1.59340       -0.01040
H         -1.91610       -1.59370       -1.60720
H         -1.95830       -3.70490        0.49670
H         -1.63050       -6.01860       -1.18980
H         -3.34710       -6.23950       -1.69760
H         -2.95880       -5.83520        0.01160
H         -4.46010       -3.73050       -0.05840
H         -4.91830       -4.30300       -1.70600
H         -4.34540       -2.62160       -1.47720
H         -1.28900       -4.17180       -3.00860
H         -2.58600       -2.93710       -3.22170
H         -2.95390       -4.65800       -3.50240
H         -0.11510        2.64150        3.25190
H          0.27770        5.05990        3.02260
H          0.12760        6.14760        0.80110
H         -0.43010        4.80150       -1.20320
H         -0.82820        2.38140       -1.00440
H          1.63100        0.26260       -2.53740
H          2.21890        2.62460       -2.92240
H          3.09280        4.03500       -1.05430
H          3.67900        3.99780        1.61970
