60

C         -3.59200       -4.12490       -1.62860
C         -3.08980       -3.87690       -0.20660
C         -3.31360       -2.43030        0.25870
C         -2.41920       -1.42910       -0.48520
C         -2.52210       -0.06470        0.13070
N         -3.16310        0.90180       -0.45280
C         -3.11670        2.10900        0.37510
C         -2.46580        3.25910       -0.38170
C         -3.61080        3.95940       -1.10510
C         -4.90690        3.54200       -0.40420
C         -4.52120        2.58590        0.71990
C         -2.32930        1.64560        1.55280
O         -2.01290        2.35170        2.54790
N         -1.96200        0.28530        1.39810
C         -0.85690       -0.38290        2.08870
C          0.43400       -0.21270        1.32780
C          1.10420       -1.33110        0.80530
C          2.29520       -1.17190        0.09220
C          2.84460        0.10620       -0.09280
C          4.09470        0.27790       -0.86550
C          4.04020        1.03300       -2.05010
C          5.16490        1.15950       -2.86550
C          6.35750        0.53210       -2.51170
C          6.43580       -0.21040       -1.33230
C          5.31890       -0.33690       -0.48510
C          5.48390       -1.06980        0.79490
N          4.72680       -0.88200        1.89580
N          5.23650       -1.69430        2.80680
N          6.26330       -2.33990        2.28290
N          6.45630       -1.97390        1.02820
C          2.17690        1.22430        0.42820
C          0.98540        1.06540        1.14070
H         -4.65580       -3.82000       -1.72400
H         -2.97850       -3.56540       -2.36480
H         -3.51220       -5.20700       -1.86420
H         -3.63980       -4.55570        0.48060
H         -2.01050       -4.13590       -0.14180
H         -4.38180       -2.15110        0.12290
H         -3.09610       -2.38590        1.34720
H         -2.73920       -1.36980       -1.54760
H         -1.36190       -1.76200       -0.46930
H         -1.99750        3.97370        0.33180
H         -1.68880        2.90370       -1.09410
H         -3.47820        5.06290       -1.07110
H         -3.63660        3.63580       -2.16900
H         -5.57610        3.02410       -1.12610
H         -5.44040        4.42850        0.00320
H         -4.51250        3.14400        1.68290
H         -5.24040        1.74120        0.80160
H         -1.10160       -1.45830        2.21410
H         -0.73930        0.03980        3.10940
H          0.70170       -2.32730        0.94130
H          2.79050       -2.04460       -0.31590
H          3.11480        1.50670       -2.35550
H          5.10820        1.73690       -3.77920
H          7.22750        0.62820       -3.14860
H          7.38200       -0.66780       -1.07050
H          6.84580       -3.04000        2.79250
H          2.58470        2.21830        0.29040
H          0.49550        1.94070        1.54560
