28

C         -1.84900        0.96090        1.48220
C         -1.70370        0.00340        0.28980
C         -2.81310        0.27800       -0.73430
C         -0.31870        0.12740       -0.39340
C          0.90480       -0.18190        0.51560
C          0.85450       -1.59270        1.14800
N          0.82410       -2.64100        0.12920
C          2.22790       -0.00020       -0.26520
C          2.46010        1.42910       -0.65590
O          2.53160        1.74800       -1.87290
O          2.60470        2.40350        0.32700
H         -2.88670        0.92940        1.87800
H         -1.17440        0.65990        2.30990
H         -1.61410        2.00380        1.17950
H         -1.85070       -1.03600        0.65110
H         -3.81170        0.14310       -0.26630
H         -2.73600       -0.43310       -1.58450
H         -2.73820        1.31540       -1.12620
H         -0.29030       -0.54750       -1.27690
H         -0.22100        1.16380       -0.78490
H          0.91620        0.54750        1.35430
H          1.75580       -1.73130        1.78580
H         -0.01980       -1.69110        1.82690
H          1.02900       -3.55090        0.60190
H         -0.15250       -2.71900       -0.23570
H          3.08610       -0.31800        0.36560
H          2.22310       -0.64320       -1.17300
H          2.76190        3.37280        0.07830
