20

C         -2.27780       -0.83530        1.57150
N         -1.39780       -0.14940        0.61800
C         -1.92700        1.01530       -0.09550
C         -0.02790       -0.56200        0.40930
N          0.49040       -1.49160        1.15240
N          0.74680        0.02090       -0.65490
C          2.15170        0.31220       -0.56440
N          2.71500        0.55850        0.57750
N          2.92780        0.40500       -1.75860
H         -2.56960       -0.13350        2.38110
H         -3.19270       -1.18460        1.04780
H         -1.79210       -1.71890        2.03350
H         -2.94540        1.27730        0.26450
H         -1.99250        0.79550       -1.18140
H         -1.26520        1.89200        0.06900
H          1.46350       -1.84280        1.01140
H          0.26990        0.21810       -1.56230
H          2.18950        0.55190        1.47930
H          2.48970        0.22840       -2.68960
H          3.94370        0.64320       -1.71500
