54

C          4.24700        4.46720       -0.79420
O          4.71790        3.39110        0.01060
C          4.10570        2.13110        0.08440
C          4.66960        1.16550        0.92460
C          4.09420       -0.10340        1.03690
C          2.94480       -0.43330        0.29870
C          2.32720       -1.77260        0.44370
O          2.51530       -2.42810        1.50510
N          1.50580       -2.32310       -0.59890
C          0.57980       -3.39250       -0.35950
C          1.05170       -4.63380        0.09630
C          0.16300       -5.68370        0.33540
C         -1.20440       -5.50400        0.12440
C         -1.68760       -4.27550       -0.33170
C         -0.80450       -3.21300       -0.59320
C         -1.36340       -1.87700       -1.02650
C         -1.48870       -0.92530        0.17450
C         -1.86030        0.51290       -0.23460
C         -3.25790        0.56610       -0.90760
C         -3.81210        1.98920       -0.89350
C         -3.94490        2.53150        0.53910
C         -3.05380        1.78220        1.54830
N         -1.75330        1.38510        0.97020
C         -0.86800        2.54320        0.75760
C          2.37420        0.54020       -0.54070
C          2.94950        1.80950       -0.64970
H          3.22060        4.75560       -0.48320
H          4.91760        5.34050       -0.66050
H          4.25340        4.17410       -1.86530
H          5.55800        1.40110        1.49680
H          4.55330       -0.82960        1.69620
H          1.50510       -1.87560       -1.54150
H          2.11100       -4.78930        0.25720
H          0.53490       -6.63760        0.68640
H         -1.89210       -6.31700        0.31790
H         -2.75380       -4.15150       -0.47650
H         -2.36230       -2.02180       -1.49170
H         -0.71600       -1.42760       -1.80790
H         -2.24610       -1.32270        0.88570
H         -0.51550       -0.88860        0.71120
H         -1.12030        0.83310       -1.00550
H         -3.97380       -0.10460       -0.38240
H         -3.18160        0.22070       -1.96140
H         -4.80570        2.00450       -1.39170
H         -3.13610        2.64600       -1.48330
H         -5.00250        2.44640        0.87140
H         -3.68460        3.61230        0.54480
H         -2.90270        2.41020        2.45370
H         -3.58410        0.86770        1.89390
H         -1.23710        3.18880       -0.06720
H          0.15530        2.19260        0.50890
H         -0.78810        3.14800        1.68610
H          1.46580        0.33850       -1.09220
H          2.48080        2.53590       -1.29940
