31

C          4.62030        1.82270       -2.10560
O          4.51690        1.08130       -0.89440
C          3.31120        0.60590       -0.35750
C          3.35480       -0.11070        0.84350
C          2.18170       -0.60580        1.42000
C          0.93980       -0.39120        0.80170
C         -0.32200       -0.93290        1.43690
C         -1.08330       -1.82590        0.49380
O         -0.64730       -2.90820        0.01930
C         -2.40200       -1.27070        0.21980
C         -3.41880       -1.76060       -0.60060
C         -4.61130       -1.02270       -0.69330
C         -4.76340        0.17880        0.02910
C         -3.72400        0.65050        0.84910
C         -2.55020       -0.10010        0.92360
C         -1.33390        0.15390        1.68420
O         -1.15940        1.13740        2.45170
C          0.89480        0.32940       -0.40640
C          2.06870        0.82380       -0.98160
H          5.68600        2.06870       -2.29040
H          4.04550        2.76940       -2.02410
H          4.24190        1.21810       -2.95680
H          4.30460       -0.28490        1.33320
H          2.24470       -1.15700        2.35000
H         -0.11440       -1.47630        2.38440
H         -3.29420       -2.68340       -1.15210
H         -5.41680       -1.37850       -1.32240
H         -5.68510        0.74080       -0.04820
H         -3.83290        1.57190        1.40640
H         -0.05080        0.50830       -0.90310
H          1.99900        1.37340       -1.91030
