44

C          4.46620       -0.79880       -1.85320
C          3.89220        0.48470       -1.26250
C          3.09820        0.19220       -0.01950
C          3.50990        0.37120        1.29840
C          4.83550        0.90600        1.74020
N          2.52400        0.02230        2.15250
C          1.49450       -0.39410        1.39410
C          1.80020       -0.29050        0.05990
C          0.83100       -0.63510       -0.99030
O          1.14390       -0.57420       -2.20900
C         -0.57890       -1.00890       -0.58300
C         -1.50000        0.22450       -0.69140
N         -2.92300       -0.17600       -0.56460
C         -3.51050        0.13530        0.76310
C         -4.51440        1.29930        0.69330
O         -5.59550        1.05440       -0.19560
C         -5.23710        0.28070       -1.33470
C         -3.74130        0.33780       -1.68440
C         -0.58890       -1.65580        0.83300
C          0.14980       -0.81840        1.90150
H          3.65390       -1.50770       -2.11770
H          5.04170       -0.55970       -2.77210
H          5.14820       -1.28410       -1.12260
H          4.73060        1.17370       -1.02650
H          3.24800        0.99380       -2.00990
H          4.91380        1.97850        1.46600
H          5.65280        0.33840        1.24810
H          4.94540        0.80600        2.84040
H          2.54880        0.07380        3.19550
H         -0.94920       -1.77260       -1.30290
H         -1.30680        0.68990       -1.68600
H         -1.21280        1.00160        0.05110
H         -4.04730       -0.76720        1.12600
H         -2.73970        0.36680        1.52850
H         -4.92870        1.47230        1.70880
H         -3.98870        2.23050        0.38930
H         -5.82010        0.64760       -2.20560
H         -5.53290       -0.77640       -1.15990
H         -3.47960        1.39440       -1.92210
H         -3.55380       -0.28150       -2.58790
H         -0.08710       -2.64650        0.76380
H         -1.62750       -1.85670        1.16670
H         -0.43930        0.08590        2.15740
H          0.27480       -1.42460        2.82380
