59

C         -4.14240       -3.25710       -2.15680
C         -2.94090       -2.40170       -1.76580
C         -3.27920       -0.90760       -1.83070
C         -2.06560       -0.05510       -1.43330
C         -2.34060        1.45700       -1.55100
C         -3.15200        2.02970       -0.37190
O         -3.53190        3.34820       -0.67070
C         -2.35780        1.99960        0.91420
C         -1.28870        2.78840        1.11250
C         -0.49300        2.71290        2.39660
C          0.49220        3.88580        2.56250
O         -0.15390        5.02950        3.05650
C          1.54200        3.39380        3.55890
C          1.44440        1.91360        3.47040
O          2.15900        1.16530        4.11910
C          0.35710        1.43200        2.56710
C          0.95310        0.88790        1.24330
C          1.67660       -0.45400        1.43060
C          2.06380       -1.06120        0.07610
C          2.80440       -2.39390        0.26090
C          3.06820       -3.11410       -1.07110
C          4.13490       -2.40930       -1.92420
C          4.46980       -3.17490       -3.17210
O          5.34350       -2.72070       -3.95790
O          3.82880       -4.37410       -3.47520
H         -3.86750       -4.33150       -2.10130
H         -4.99040       -3.07120       -1.46370
H         -4.45970       -3.02490       -3.19580
H         -2.62880       -2.67080       -0.73300
H         -2.09960       -2.62680       -2.45720
H         -4.12700       -0.69970       -1.14410
H         -3.59030       -0.64750       -2.86650
H         -1.75330       -0.31510       -0.39990
H         -1.21910       -0.30490       -2.11020
H         -2.88080        1.65980       -2.50180
H         -1.36800        1.99160       -1.62100
H         -4.06840        1.41270       -0.23760
H         -4.23900        3.59840       -0.01960
H         -2.66820        1.31030        1.69490
H         -0.99400        3.49700        0.34310
H         -1.21330        2.75990        3.24700
H          0.99990        4.11140        1.59420
H         -0.66630        5.41320        2.29790
H          1.30290        3.71760        4.59540
H          2.55850        3.74030        3.27300
H         -0.25200        0.64790        3.06950
H          1.65220        1.63280        0.80190
H          0.13610        0.72440        0.51420
H          1.00880       -1.16160        1.96970
H          2.59630       -0.30160        2.03470
H          1.14370       -1.23110       -0.52600
H          2.71490       -0.34220       -0.46530
H          2.18320       -3.06490        0.89400
H          3.76520       -2.22240        0.79420
H          2.11940       -3.20120       -1.64530
H          3.41960       -4.14330       -0.83710
H          5.06380       -2.28540       -1.32670
H          3.77290       -1.40440       -2.22590
H          4.05670       -4.88680       -4.31860
