14

O          2.60800       -1.30680       -0.15860
C          2.06420       -0.17230       -0.23360
O          2.84810        0.95280       -0.47160
C          0.60780       -0.02840       -0.07160
N          0.04780        1.20580       -0.15710
C         -1.29080        1.36440       -0.01150
O         -1.79730        2.51430       -0.09300
N         -2.08070        0.28430        0.22160
C         -1.52800       -0.95420        0.30860
O         -2.26040       -1.95690        0.52480
N         -0.18530       -1.11190        0.16230
H          3.85150        0.87270       -0.58570
H         -3.11330        0.40580        0.33410
H          0.22840       -2.06970        0.23120
