21

C          2.62390       -0.78410        0.38820
C          1.28040       -0.38410       -0.20600
O          0.30030       -1.30160        0.23310
C         -0.95270       -0.91470       -0.29180
C         -2.01250       -1.88570        0.20990
O         -1.29210        0.38730        0.13820
C         -0.29400        1.28580       -0.29980
C         -0.64480        2.68270        0.19350
O          0.96660        0.92400        0.22510
H          2.89510       -1.80900        0.05660
H          3.41300       -0.07910        0.05040
H          2.57320       -0.76490        1.49790
H          1.38980       -0.42080       -1.31740
H         -0.95280       -0.97740       -1.40750
H         -1.76960       -2.91730       -0.12270
H         -3.00730       -1.60450       -0.19650
H         -2.05670       -1.86500        1.31990
H         -0.26180        1.33080       -1.41580
H         -0.69090        2.69700        1.30340
H         -1.63130        2.99170       -0.21310
H          0.12440        3.40890       -0.14560
