40

C         -3.14550       -2.70140       -1.87890
N         -3.13330       -1.58760       -0.91370
C         -3.88290       -1.97910        0.29120
C         -1.74910       -1.21320       -0.55090
C         -1.12750       -0.31420       -1.62590
N          0.14420        0.25910       -1.16020
C          1.35900       -0.57440       -1.18860
C          2.09130       -0.52960        0.13130
C          1.47120       -0.98670        1.30660
C          2.14940       -0.93750        2.52820
C          3.45280       -0.43810        2.58640
C          4.08160        0.00960        1.42200
C          3.40710       -0.03820        0.19820
C          0.18930        1.64840       -0.76540
C          1.32370        2.44420       -1.00730
C          1.32810        3.77900       -0.59800
C          0.20970        4.31480        0.04040
C         -0.90450        3.50360        0.25770
N         -0.89010        2.20540       -0.14530
H         -2.64240       -3.60370       -1.46470
H         -2.64300       -2.40600       -2.82240
H         -4.19160       -2.96550       -2.14590
H         -4.92230       -2.26810        0.02350
H         -3.95790       -1.11900        0.99080
H         -3.39080       -2.83080        0.81260
H         -1.11800       -2.11640       -0.39250
H         -1.74640       -0.63210        0.39940
H         -1.84720        0.49480       -1.88120
H         -0.94790       -0.88780       -2.55960
H          1.10160       -1.63320       -1.40890
H          2.01280       -0.23420       -2.02000
H          0.46560       -1.38050        1.28100
H          1.66440       -1.28800        3.43010
H          3.97630       -0.40060        3.53300
H          5.09260        0.39350        1.46740
H          3.91070        0.31170       -0.69420
H          2.18960        2.04890       -1.51900
H          2.19650        4.39880       -0.78000
H          0.20450        5.34900        0.35940
H         -1.78130        3.90510        0.74780
