49

C         -5.05650       -1.69420       -0.13240
C         -3.97790       -1.32880        0.26510
C         -2.65340       -0.88570        0.75860
O         -2.74630       -0.57910        2.13060
C         -1.70620       -2.02010        0.54240
C         -0.82460       -1.78160       -0.40960
C         -0.98630       -0.42850       -1.01710
C          0.35580        0.34170       -1.18470
C          1.25930       -0.20110       -2.33350
C          2.31300       -1.23070       -1.90880
C          3.01490       -0.72940       -0.68700
C          4.29160       -0.31490       -0.74890
C          4.91470        0.40370        0.37210
O          6.12880        0.73240        0.30790
C          4.08880        0.81800        1.55100
C          2.97640       -0.20320        1.79630
C          2.13950       -0.49090        0.52140
C          1.09850        0.61210        0.17390
C          0.09390        0.82270        1.33880
C         -1.26410        1.33600        0.84840
C         -2.01120        0.30400       -0.07500
C         -3.03900        1.09450       -0.95430
C         -4.06530        1.90510       -0.15220
H         -6.00270       -2.01390       -0.48170
H         -3.03670       -1.39740        2.61510
H         -1.78050       -2.97860        1.04760
H         -0.14500       -2.54310       -0.76710
H         -1.43720       -0.58410       -2.02290
H          0.04210        1.34350       -1.55810
H          1.80360        0.66130       -2.78040
H          0.63760       -0.63210       -3.14750
H          3.02150       -1.38930       -2.75170
H          1.84710       -2.21190       -1.69490
H          4.87160       -0.46470       -1.65190
H          4.72990        0.88520        2.45660
H          3.65180        1.82050        1.35870
H          2.33630        0.13850        2.63520
H          3.44680       -1.15540        2.12930
H          1.59020       -1.43550        0.72210
H          1.65620        1.56650        0.04010
H          0.51350        1.56470        2.05270
H         -0.06350       -0.12050        1.90460
H         -1.08250        2.28710        0.29960
H         -1.88720        1.61950        1.72270
H         -2.49020        1.80080       -1.61540
H         -3.58150        0.40460       -1.63590
H         -4.56580        1.28200        0.61600
H         -3.57910        2.76960        0.34550
H         -4.84050        2.30090       -0.84160
