56

C         -0.82830       -4.54050       -1.57800
O         -2.21530       -4.22140       -1.63000
C         -2.73880       -2.91890       -1.57320
C         -1.90840       -1.79100       -1.45680
C         -2.45340       -0.50250       -1.39190
C         -1.55710        0.67260       -1.26900
O         -0.38110        0.60100       -1.72070
N         -1.99840        1.88070       -0.62630
C         -1.16830        3.08260       -0.57030
C          0.00220        2.87140        0.35270
C          1.31670        2.91870       -0.13600
C          2.39870        2.71250        0.72510
C          2.18000        2.45550        2.09300
O          3.22710        2.23870        3.00430
C          4.61340        2.15260        2.67210
C          4.93660        0.79190        2.04210
N          6.31420        0.77670        1.50330
C          6.44220       -0.26120        0.46730
C          7.29870        0.52480        2.57070
C          0.86700        2.41830        2.57660
C         -0.21480        2.62390        1.71610
C         -3.84460       -0.34630       -1.46830
C         -4.69690       -1.46210       -1.58630
O         -6.08970       -1.29890       -1.65930
C         -6.77210       -0.04960       -1.61450
C         -4.13280       -2.76280       -1.63510
O         -4.89510       -3.94190       -1.74710
C         -6.31370       -4.03310       -1.81890
H         -0.70710       -5.64110       -1.64360
H         -0.29650       -4.07300       -2.43350
H         -0.39180       -4.19170       -0.61840
H         -0.83480       -1.91200       -1.40190
H         -2.93230        1.91410       -0.16070
H         -0.83550        3.34800       -1.59750
H         -1.77380        3.93370       -0.19010
H          1.50600        3.10980       -1.18500
H          3.39670        2.75390        0.31290
H          5.19140        2.26660        3.61170
H          4.90750        2.98730        2.00080
H          4.78410       -0.01680        2.79270
H          4.20260        0.61340        1.22580
H          6.19000       -1.26720        0.87190
H          5.76870       -0.03330       -0.38690
H          7.47800       -0.28040        0.06430
H          7.11580       -0.45320        3.06950
H          8.32780        0.52560        2.15070
H          7.26630        1.33240        3.33020
H          0.68410        2.22550        3.62620
H         -1.22260        2.58730        2.11140
H         -4.26340        0.64890       -1.46400
H         -6.55850        0.46880       -0.65590
H         -6.46500        0.58480       -2.47260
H         -7.86410       -0.23190       -1.68260
H         -6.77350       -3.61540       -0.89870
H         -6.68760       -3.51100       -2.72450
H         -6.60020       -5.10200       -1.89380
