38

C         -0.49310       -2.27500       -2.16280
C         -0.96810       -1.41890       -1.02640
C         -0.14910       -0.82610       -0.13440
C         -0.73030        0.14400        0.83950
C         -0.46680        0.06580        2.16140
C          0.34380       -1.02470        2.79560
C         -1.62690        1.22220        0.33110
C         -1.33780        1.86680       -0.88620
C         -2.17880        2.87000       -1.37610
C         -3.32290        3.23980       -0.66400
O         -4.15140        4.24140       -1.16480
C         -3.62650        2.59860        0.54320
C         -2.78770        1.59500        1.03690
C          1.32340       -1.01270       -0.18150
C          2.16670        0.10210       -0.31890
C          3.55500       -0.06030       -0.33580
C          4.11610       -1.33700       -0.20070
O          5.49810       -1.51090       -0.21600
C          3.28190       -2.44800       -0.04340
C          1.89330       -2.28840       -0.02700
H         -0.07310       -3.22840       -1.78490
H          0.27150       -1.73280       -2.75840
H         -1.34900       -2.51700       -2.82690
H         -2.03450       -1.23020       -0.97090
H         -0.88480        0.80520        2.83400
H          0.25500       -0.95830        3.90010
H          1.41490       -0.91110        2.53140
H         -0.02730       -2.02040        2.47290
H         -0.45740        1.59970       -1.45650
H         -1.94100        3.36050       -2.31150
H         -4.98840        4.53150       -0.67260
H         -4.51540        2.87270        1.09710
H         -3.05850        1.09770        1.95960
H          1.75050        1.09660       -0.41690
H          4.19330        0.80650       -0.45020
H          6.12930       -0.72590       -0.32650
H          3.71050       -3.43490        0.07610
H          1.26540       -3.15510        0.13440
