45

C          7.13020        1.47840       -1.56680
O          6.96350        0.10420       -1.23360
C          5.84160       -0.42020       -0.57450
C          4.75810        0.38270       -0.17240
C          3.66140       -0.18790        0.48020
C          3.62100       -1.57060        0.73280
C          2.46990       -2.18450        1.43930
O          2.66740       -3.18760        2.17640
C          1.09760       -1.64240        1.35830
C          0.54450       -1.18610        0.22180
O          1.26230       -1.25370       -0.97440
C         -0.83720       -0.64150        0.21670
C         -1.69610       -0.91410       -0.85640
C         -2.99610       -0.40120       -0.87890
C         -3.47830        0.40860        0.17570
C         -4.90450        0.99710        0.19200
C         -5.65710        0.48920        1.44120
C         -5.73830        0.60270       -1.05090
C         -4.82470        2.53870        0.23300
C         -2.59980        0.67920        1.24770
C         -1.30190        0.16390        1.26760
C          4.71200       -2.36510        0.34370
C          5.80800       -1.79330       -0.30870
H          6.31850        1.80680       -2.24980
H          7.12800        2.09780       -0.64510
H          8.10360        1.61120       -2.08180
H          4.75530        1.44860       -0.35460
H          2.84910        0.45470        0.79610
H          0.49280       -1.70610        2.25520
H          0.90210       -0.86910       -1.83900
H         -1.36950       -1.54320       -1.67500
H         -3.60820       -0.65380       -1.73150
H         -6.70290        0.86610        1.45210
H         -5.17150        0.83220        2.37860
H         -5.68600       -0.62200        1.44950
H         -6.75700        1.04500       -0.99890
H         -5.85730       -0.50070       -1.11430
H         -5.26100        0.97560       -1.98290
H         -4.24880        2.91890       -0.63840
H         -5.84140        2.98720        0.20250
H         -4.33140        2.89780        1.16030
H         -2.91220        1.29730        2.07820
H         -0.65480        0.41200        2.09980
H          4.71180       -3.43130        0.53390
H          6.63700       -2.42130       -0.60960
