48

C         -1.51810       -2.17260       -1.65380
C         -1.14740       -1.36930       -0.39980
C         -2.41070       -0.84440        0.32540
C         -3.20200        0.17870       -0.50630
C         -4.29750        0.80820        0.31580
C         -4.21920        2.15950        0.69490
C         -5.24000        2.73830        1.45560
C         -6.34600        1.97560        1.84040
C         -6.43400        0.63270        1.46420
C         -5.41560        0.04970        0.70380
N         -0.35710       -2.23880        0.49980
C          1.09660       -2.08540        0.31380
C          1.66540       -0.87300        1.08550
O          1.65200       -1.12950        2.46810
C          3.08820       -0.59690        0.65270
C          4.10840       -1.51970        0.92960
C          5.41990       -1.26330        0.52990
C          5.74170       -0.08320       -0.14810
O          7.08240        0.14200       -0.46830
C          4.72090        0.84740       -0.45810
C          4.98750        2.07310       -1.24310
N          4.38260        3.31580       -0.88080
O          5.72480        2.02150       -2.26360
C          3.40390        0.58310       -0.04110
H         -1.97550       -1.51620       -2.42240
H         -0.60860       -2.62410       -2.10290
H         -2.22650       -2.98950       -1.39860
H         -0.55210       -0.48530       -0.72310
H         -3.06720       -1.69970        0.59820
H         -2.09220       -0.34610        1.26830
H         -2.50620        0.96090       -0.88180
H         -3.66300       -0.31300       -1.38890
H         -3.36800        2.76380        0.40700
H         -5.17350        3.77850        1.74710
H         -7.13510        2.42540        2.42900
H         -7.29210        0.04350        1.76070
H         -5.49900       -0.99070        0.41470
H         -0.59890       -2.09250        1.50730
H          1.59170       -3.01270        0.67400
H          1.34000       -1.99760       -0.76920
H          1.04060        0.02310        0.85980
H          0.81990       -0.73290        2.83680
H          3.88960       -2.43610        1.46340
H          6.19750       -1.97930        0.76480
H          7.42500        1.01650       -0.84260
H          3.80970        3.40300       -0.01230
H          4.54260        4.16720       -1.46370
H          2.61450        1.28410       -0.28530
