49

C         -4.60240       -3.18670       -0.13900
C         -4.96020       -1.73730       -0.04480
N         -6.19400       -1.25110       -0.31820
C         -6.10870        0.08040       -0.15290
C         -7.12090        1.02040       -0.34240
C         -6.80690        2.37610       -0.13620
C         -5.50180        2.75840        0.24580
C         -4.49920        1.78860        0.42770
C         -4.84200        0.45150        0.22320
C         -4.09040       -0.70490        0.31090
C         -2.62180       -0.80860        0.60850
C         -1.79880       -0.57060       -0.66770
N         -0.35650       -0.76500       -0.45210
C          0.23940        0.31010        0.35580
C          1.74910        0.32950        0.25860
C          2.46820       -0.51200       -0.61190
C          3.86400       -0.45050       -0.66720
C          4.57370        0.45020        0.15040
C          6.05350        0.56280        0.12160
C          6.86550       -0.41660       -0.30350
C          8.33850       -0.30080       -0.32890
O          8.99220       -1.12030       -1.02780
N          9.04460        0.68710        0.43370
O         10.38220        0.83800        0.28050
C          3.85210        1.30380        0.99910
C          2.45750        1.24160        1.05490
H         -3.78550       -3.32280       -0.87790
H         -5.48160       -3.78250       -0.46230
H         -4.26650       -3.55370        0.85300
H         -7.03560       -1.79490       -0.61360
H         -8.11610        0.71860       -0.64230
H         -7.56950        3.13130       -0.27500
H         -5.27080        3.80470        0.39770
H         -3.49620        2.07600        0.71490
H         -2.36100       -0.05640        1.38160
H         -2.39560       -1.81370        1.02340
H         -1.99670        0.44840       -1.06870
H         -2.12930       -1.29170       -1.44670
H         -0.20040       -1.68110        0.03150
H         -0.13370        1.30280        0.01890
H         -0.03980        0.17380        1.42400
H          1.96040       -1.21140       -1.26250
H          4.37380       -1.09190       -1.37220
H          6.47690        1.48890        0.48480
H          6.45080       -1.34690       -0.66610
H          8.55720        1.27990        1.14010
H         10.78560        0.22360        0.94580
H          4.37040        2.01680        1.62900
H          1.92640        1.90800        1.72390
