39

C         -1.18930       -2.06040       -2.47450
C         -0.50160       -0.69630       -2.39650
C          0.02080       -0.38400       -0.97190
C         -1.10370       -0.28910        0.05510
C         -1.04840       -1.07900        1.21890
C         -2.06530       -1.01010        2.17420
C         -3.15510       -0.16050        1.97820
C         -3.23370        0.62270        0.82040
O         -4.31980        1.46930        0.60970
C         -2.21520        0.55620       -0.13640
C          0.99130        0.84220       -0.94240
C          0.34310        2.16790       -1.37990
C          1.65900        1.02990        0.44370
N          2.33390       -0.20480        0.90560
C          2.47250       -0.19000        2.37090
C          3.66500       -0.34820        0.29000
H         -0.49260       -2.86500       -2.15680
H         -2.09220       -2.08040       -1.82850
H         -1.50310       -2.25800       -3.52120
H          0.35400       -0.70440       -3.10650
H         -1.21450        0.07770       -2.74630
H          0.65230       -1.26190       -0.70740
H         -0.21330       -1.74590        1.39300
H         -2.00820       -1.61750        3.06820
H         -3.93880       -0.11410        2.72350
H         -5.07410        1.54060        1.28260
H         -2.30300        1.16180       -1.02770
H          1.79720        0.64260       -1.68070
H          1.12560        2.95050       -1.47780
H         -0.39400        2.52330       -0.63110
H         -0.14770        2.07130       -2.36890
H          0.86270        1.32900        1.16320
H          2.37880        1.87990        0.40550
H          1.47010       -0.16730        2.85000
H          3.05830        0.69340        2.71060
H          2.97520       -1.11740        2.72100
H          4.15360       -1.28060        0.64680
H          3.57870       -0.43980       -0.81160
H          4.32140        0.51650        0.53500
