60

O         -2.80330       -1.41560       -0.09790
C         -1.55480       -1.43980        0.07290
C         -0.83600       -2.73860        0.00390
C         -1.54200       -3.96620        0.01790
O         -2.93180       -3.99190        0.14120
C         -0.84730       -5.17480       -0.08440
C          0.53780       -5.18360       -0.19860
C          1.25650       -3.98440       -0.20400
O          2.64600       -4.02940       -0.32470
C          0.57450       -2.74730       -0.09350
C          1.31710       -1.45830       -0.06450
O          2.57500       -1.47340        0.01470
C          0.58920       -0.15650       -0.02070
C          1.27350        1.08340       -0.14140
N          2.63990        1.14360       -0.58680
C          3.60770        2.07810       -0.00860
C          5.04010        1.68580       -0.37710
N          5.35150        0.35490        0.16240
C          6.56990       -0.21850       -0.43000
C          7.84620        0.47890        0.05620
O          8.96480       -0.20400       -0.43690
C          0.58530        2.27680        0.10410
C         -0.75630        2.26390        0.45990
C         -1.46990        1.05960        0.53090
N         -2.83560        1.07320        0.99250
C         -3.74160        2.19820        0.74430
C         -5.20330        1.82860        1.05590
N         -5.75610        0.84980        0.10380
C         -6.18880        1.46370       -1.16300
C         -7.71510        1.53000       -1.21830
O         -8.21610        2.35280       -0.19980
C         -0.80630       -0.16070        0.22450
H         -3.45090       -4.86220        0.15540
H         -1.38480       -6.11470       -0.07590
H          1.05690       -6.13020       -0.28120
H          3.14730       -4.90640       -0.40620
H          2.94880        0.49310       -1.34460
H          3.50480        2.08480        1.09860
H          3.40670        3.10200       -0.38900
H          5.73400        2.44480        0.04640
H          5.13720        1.69760       -1.48570
H          5.46780        0.42370        1.20110
H          6.51720       -0.18490       -1.54070
H          6.62220       -1.29080       -0.14220
H          7.86690        1.52850       -0.31000
H          7.87210        0.47940        1.16880
H          9.75850        0.28080       -0.09040
H          1.08760        3.23090        0.01690
H         -1.23470        3.20730        0.68460
H         -3.17410        0.27590        1.57710
H         -3.64900        2.52500       -0.31310
H         -3.45140        3.04810        1.39780
H         -5.26060        1.40100        2.07980
H         -5.82350        2.75200        1.06860
H         -5.04880        0.10440       -0.09240
H         -5.76800        2.48320       -1.31220
H         -5.83960        0.84220       -2.01780
H         -8.03960        1.90840       -2.21420
H         -8.13310        0.50850       -1.09240
H         -8.04050        3.28910       -0.47940
