40

C          3.55600       -2.43780        0.20560
N          2.48160       -1.43400        0.26630
C          3.05390       -0.09810        0.43640
C          1.95550        0.95490        0.62470
N          0.70920        0.74110       -0.15790
C         -0.31480        1.80870       -0.15170
C         -0.02620        3.04550        0.49270
C         -0.91930        4.11330        0.48410
C         -2.14110        3.99640       -0.15370
C         -2.49220        2.79930       -0.76080
C         -1.62510        1.68520       -0.75380
C         -2.18540        0.42610       -1.39130
C         -2.00780       -0.76700       -0.49360
C         -3.12710       -1.36830        0.10930
C         -2.96430       -2.43040        0.99850
C         -1.68570       -2.89030        1.30680
C         -0.56660       -2.30020        0.71600
C         -0.71560       -1.25170       -0.21890
C          0.47010       -0.54360       -0.85670
C          1.71760       -1.44040       -0.98450
H          4.24640       -2.24500       -0.64630
H          4.13800       -2.43250        1.15230
H          3.12110       -3.45470        0.09650
H          3.69260        0.17720       -0.43620
H          3.70760       -0.07580        1.33720
H          1.69270        1.00850        1.70400
H          2.42630        1.91350        0.32010
H          0.89230        3.22150        1.02760
H         -0.65760        5.04120        0.97700
H         -2.82890        4.83240       -0.16380
H         -3.46680        2.74240       -1.23060
H         -3.27060        0.54640       -1.60570
H         -1.74180        0.26180       -2.39330
H         -4.12660       -1.00550       -0.09560
H         -3.82970       -2.88630        1.46180
H         -1.56000       -3.70200        2.01190
H          0.40570       -2.67430        0.99780
H          0.23820       -0.31520       -1.91470
H          1.40040       -2.47500       -1.24850
H          2.34820       -1.08720       -1.83530
