54

C          5.85060       -0.09050        2.36470
C          4.40420        0.33640        2.26360
C          3.44870       -0.37270        1.49570
C          3.74380       -1.65910        0.83210
C          3.44350       -1.82340       -0.52960
C          3.67400       -3.05080       -1.15880
C          4.18820       -4.12640       -0.42940
C          4.46500       -3.97880        0.93250
C          4.23550       -2.75320        1.56540
O          2.21840        0.11140        1.35590
C          1.79270        1.23120        1.93110
C          0.46340        1.67570        1.73000
C         -0.49520        0.93140        0.87150
O         -0.14810       -0.13810        0.29880
O         -1.79760        1.41990        0.70250
C         -2.76400        0.80810       -0.14970
C         -2.44380        1.11970       -1.62490
N         -3.48410        0.66980       -2.57490
C         -4.78900        1.36580       -2.43450
C         -5.91450        0.42630       -1.97890
C         -6.08010       -0.75930       -2.94590
C         -4.75120       -1.20580       -3.58450
C         -3.55350       -0.80180       -2.72040
C          0.03990        2.85890        2.36180
C          0.91020        3.58570        3.17450
C          2.21940        3.15010        3.37080
C          2.67260        1.97300        2.75150
C          3.98960        1.51220        2.91340
O          4.80500        2.15640        3.63130
H          6.11710       -0.88870        1.64490
H          6.06230       -0.44560        3.39500
H          6.51220        0.77230        2.13810
H          3.03830       -0.99960       -1.10470
H          3.45040       -3.16920       -2.21110
H          4.36430       -5.07630       -0.91740
H          4.85080       -4.81610        1.49950
H          4.43380       -2.65900        2.62600
H         -3.75790        1.21690        0.12050
H         -2.78280       -0.28470        0.04080
H         -2.30250        2.21690       -1.73770
H         -1.47300        0.65220       -1.89730
H         -5.06400        1.78900       -3.42450
H         -4.72690        2.23050       -1.73780
H         -6.87000        0.99030       -1.91380
H         -5.67930        0.04470       -0.96160
H         -6.52930       -1.61090       -2.38980
H         -6.79060       -0.48000       -3.75440
H         -4.75550       -2.30800       -3.72820
H         -4.64370       -0.73380       -4.58600
H         -2.62290       -1.16600       -3.20670
H         -3.64690       -1.30500       -1.73550
H         -0.96950        3.22770        2.22990
H          0.56760        4.49390        3.65360
H          2.87420        3.73630        4.00380
