50

C          6.68080       -0.32980       -0.94350
C          6.21240       -0.32470       -2.39850
C          5.35720        0.90300       -2.75400
C          3.97540        0.89350       -2.09310
O          4.08810        1.25130       -0.71800
C          3.01290        1.33320        0.18090
C          1.68420        1.09230       -0.22340
C          0.62480        1.18030        0.69740
C         -0.77010        0.92580        0.27260
O         -1.02220        0.62720       -0.92770
O         -1.81090        1.02390        1.20540
C         -3.17360        0.73500        0.89840
C         -3.40230       -0.77800        0.83780
N         -4.81730       -1.06650        0.50690
C         -4.93980       -2.31480       -0.28100
C         -4.75780       -2.02200       -1.76790
C         -5.65190       -1.12190        1.72930
C         -7.07080       -0.65080        1.42270
C          0.90670        1.51220        2.03140
C          2.21990        1.75180        2.43850
C          3.27620        1.66470        1.52270
N          4.61620        1.91180        1.96470
H          7.15040        0.64170       -0.68000
H          5.83110       -0.53160       -0.25930
H          7.43190       -1.13500       -0.80110
H          7.11190       -0.32170       -3.05170
H          5.64890       -1.25900       -2.61120
H          5.89720        1.83840       -2.48970
H          5.21090        0.90790       -3.85610
H          3.51250       -0.11270       -2.19110
H          3.33060        1.63730       -2.60960
H          1.47110        0.83720       -1.25240
H         -3.80830        1.17830        1.69300
H         -3.45890        1.20800       -0.06690
H         -3.10760       -1.24770        1.80410
H         -2.71660       -1.18910        0.06540
H         -4.20070       -3.07910        0.05110
H         -5.94760       -2.77080       -0.16350
H         -4.90160       -2.95540       -2.35190
H         -3.74020       -1.63110       -1.97460
H         -5.50790       -1.27340       -2.10050
H         -5.25460       -0.45080        2.52280
H         -5.67540       -2.14900        2.15960
H         -7.56230       -1.32240        0.68900
H         -7.04620        0.38040        1.01060
H         -7.67260       -0.64820        2.35590
H          0.11280        1.58680        2.76390
H          2.41540        2.00580        3.47280
H          4.81140        2.15690        2.96110
H          5.42650        1.85270        1.30900
