75

C          8.21560       -0.95020        0.96820
C          7.16210        0.15180        1.05260
N          6.72040        0.57370       -0.29820
C          6.17270        1.94850       -0.29720
C          7.29420        2.96520       -0.48960
C          5.80340       -0.39920       -0.94120
C          4.52440       -0.61470       -0.17700
O          4.29030       -1.74160        0.33730
O          3.60160        0.42980       -0.05660
C          2.36080        0.31160        0.63620
C          1.38840       -0.53240       -0.15280
O          1.23090       -0.26790       -1.33640
C          0.55070       -1.64240        0.50400
O          1.21540       -2.11740        1.65430
C          0.30430       -2.81810       -0.49530
C         -1.13860       -2.68630       -1.01750
C         -1.62110       -1.34340       -0.48440
C         -3.14110       -1.07580       -0.40620
C         -3.80170       -1.31140       -1.78900
C         -5.28170       -0.91190       -1.80430
C         -5.40060        0.51210       -1.32570
C         -5.66170        1.47910       -2.22580
C         -5.41390        2.89590       -1.92990
O         -5.72520        3.77740       -2.77400
C         -4.71020        3.28170       -0.66960
C         -5.11510        2.32220        0.44670
C         -4.88470        0.81620        0.08650
C         -5.72160       -0.00430        1.10760
C         -3.35750        0.40770        0.08160
C         -2.55200        0.75530        1.38240
O         -3.17260        0.22730        2.52360
C         -1.06510        0.30250        1.30950
C         -0.90330       -1.17690        0.86270
C         -1.46580       -2.12710        1.97610
H          8.65840       -1.11850        1.97270
H          7.76300       -1.90460        0.62950
H          9.02460       -0.65360        0.26730
H          6.30860       -0.18780        1.67830
H          7.63170        1.00370        1.59090
H          5.45630        2.09760       -1.13610
H          5.62560        2.16570        0.64820
H          6.86420        3.98740       -0.54850
H          8.00860        2.93380        0.35850
H          7.84070        2.75310       -1.43300
H          6.32550       -1.36960       -1.07620
H          5.55170       -0.05850       -1.96880
H          1.92890        1.32860        0.73950
H          2.53340       -0.07520        1.66180
H          2.04000       -2.58240        1.35580
H          0.41070       -3.79910        0.01860
H          1.03020       -2.81270       -1.33800
H         -1.16230       -2.70700       -2.12900
H         -1.77250       -3.51130       -0.62470
H         -1.22240       -0.58160       -1.19410
H         -3.60250       -1.79690        0.29150
H         -3.26480       -0.72610       -2.56880
H         -3.72720       -2.38620       -2.06210
H         -5.67550       -1.03540       -2.83730
H         -5.87120       -1.59050       -1.15350
H         -5.97820        1.21980       -3.22930
H         -3.61240        3.25320       -0.83060
H         -4.99190        4.31780       -0.38180
H         -4.60110        2.60270        1.38770
H         -6.19950        2.49200        0.64000
H         -5.49800       -1.08670        1.09150
H         -5.56950        0.35890        2.14470
H         -6.80600        0.11000        0.88940
H         -2.88550        1.04120       -0.70430
H         -2.52330        1.86470        1.47470
H         -2.80730        0.71650        3.30660
H         -0.56860        0.45980        2.29180
H         -0.56220        0.97860        0.58600
H         -2.55120       -2.03420        2.14600
H         -0.97210       -1.90920        2.94730
H         -1.27860       -3.19520        1.74000
