26

O          3.33130        0.56400       -1.46220
C          2.33710        0.56910       -0.47500
C          1.69610       -0.82640       -0.37040
O          1.16130       -1.22500       -1.60780
C          0.61690       -0.90450        0.75380
O          0.73660       -2.13780        1.42060
C         -0.86980       -0.70710        0.30840
O         -1.71560       -1.01170        1.39180
C         -1.18630        0.71670       -0.24640
O         -0.67400        0.86700       -1.54690
C         -2.69900        1.03560       -0.26650
O         -3.18470        1.28900        1.02470
H          3.71170        1.48070       -1.47640
H          1.57920        1.34040       -0.71700
H          2.79820        0.83280        0.50350
H          2.52210       -1.52420       -0.08960
H          1.91770       -1.54230       -2.16720
H          0.84260       -0.12250        1.51210
H          0.52860       -2.85190        0.76200
H         -1.10080       -1.44960       -0.48590
H         -1.48460       -0.39310        2.13390
H         -0.69000        1.47140        0.40180
H         -1.15820        0.23270       -2.13840
H         -3.25930        0.18040       -0.70160
H         -2.88970        1.92060       -0.91620
H         -2.86740        2.19560        1.27570
