15

O          2.13910        1.23210        1.22520
C          1.91540        0.24020        0.48090
O          2.84060       -0.12140       -0.49330
C          0.63460       -0.52150        0.61110
C         -0.43580        0.06930       -0.31060
C         -1.75260       -0.70240       -0.19210
O         -2.70890       -0.16590       -1.06520
H          3.70540        0.39410       -0.60510
H          0.81760       -1.58490        0.34390
H          0.28790       -0.48350        1.66710
H         -0.08400        0.02670       -1.36520
H         -0.61160        1.13390       -0.04010
H         -1.58500       -1.76610       -0.46550
H         -2.12740       -0.67090        0.85670
H         -3.03520        0.67390       -0.64800
