53

C          7.92550       -0.21650        0.26520
C          6.44030       -0.44130        0.53460
C          5.58740        0.01130       -0.65960
C          4.09760       -0.31940       -0.47970
C          3.42370        0.54920        0.59360
C          1.93740        0.29990        0.63120
C          1.43870       -0.91730        1.11740
C          0.05850       -1.15480        1.16380
O         -0.42090       -2.36610        1.66320
C         -0.84290       -0.16980        0.71150
C         -0.33860        1.05010        0.22090
C          1.03920        1.28310        0.19290
O         -1.20220        2.05300       -0.22800
C         -2.58010        1.82150       -0.52370
C         -2.65960        1.22090       -1.94550
C         -3.27820        3.19400       -0.51640
C         -3.18520        0.88940        0.58360
C         -4.71640        0.59060        0.40420
C         -5.07510       -0.90440        0.48320
C         -4.09640       -1.72160       -0.32670
C         -4.56810       -2.74450       -1.32180
C         -2.78370       -1.48840       -0.16800
C         -2.33890       -0.40680        0.78930
H          8.51680       -0.54270        1.14660
H          8.12530        0.86080        0.08210
H          8.25160       -0.80580       -0.61820
H          6.15900        0.13160        1.44320
H          6.27130       -1.52250        0.73090
H          5.94560       -0.51010       -1.57440
H          5.71430        1.10390       -0.82380
H          3.98200       -1.39680       -0.23000
H          3.58680       -0.14330       -1.45220
H          3.84610        0.32430        1.59580
H          3.62880        1.62070        0.37690
H          2.12380       -1.67890        1.46950
H          0.20590       -3.09010        1.99460
H          1.40670        2.22990       -0.18350
H         -2.22800        1.93410       -2.68020
H         -2.06540        0.28820       -2.01900
H         -3.70060        1.00660       -2.25750
H         -4.33840        3.11770       -0.83460
H         -2.76160        3.89010       -1.21180
H         -3.24290        3.64120        0.49990
H         -3.08800        1.45120        1.54160
H         -5.28930        1.12930        1.19040
H         -5.10130        0.97270       -0.56080
H         -5.02700       -1.23590        1.54330
H         -6.11750       -1.05670        0.13010
H         -4.15470       -3.74110       -1.05930
H         -4.22390       -2.46310       -2.33950
H         -5.67570       -2.81550       -1.33110
H         -2.05450       -2.03680       -0.75980
H         -2.55740       -0.77510        1.81750
