29

O          5.35170       -0.45540        1.06220
C          4.74280        0.39190        0.35560
O          5.06210        1.74210        0.45850
C          3.64380       -0.04590       -0.55980
C          2.29560       -0.00860        0.16550
C          1.15850       -0.45020       -0.76360
C         -0.19190       -0.41410       -0.03780
C         -1.33060       -0.84610       -0.97390
C         -2.68340       -0.95260       -0.25200
C         -3.26430        0.42150        0.12360
C         -4.63980        0.33190        0.72870
O         -5.20340       -0.78150        0.90520
O         -5.30520        1.49430        1.10510
H          5.79260        2.05670        1.08580
H          3.61660        0.63050       -1.44150
H          3.85180       -1.07740       -0.91970
H          2.33390       -0.68540        1.04800
H          2.09860        1.02690        0.52220
H          1.11990        0.22690       -1.64550
H          1.35730       -1.48490       -1.12070
H         -0.37650        0.61980        0.32380
H         -0.15460       -1.09670        0.83960
H         -1.08820       -1.84680       -1.39460
H         -1.41230       -0.13470       -1.82490
H         -3.39440       -1.46610       -0.93630
H         -2.57520       -1.58110        0.65930
H         -3.32380        1.05830       -0.78510
H         -2.60190        0.92190        0.85990
H         -4.87940        2.40470        0.97790
