50

C          4.13100        3.02570       -0.03690
C          4.23610        1.51310        0.21240
C          4.97670        0.83950       -0.95580
C          2.84340        0.88480        0.52920
C          1.90000        0.80930       -0.69410
C          0.52760        0.25370       -0.29250
C          0.66070       -1.13560        0.36010
C         -0.70550       -1.66990        0.72210
O         -1.04830       -1.78150        1.93140
N         -1.61400       -2.05290       -0.32500
C         -3.03090       -2.38770       -0.11620
C         -3.79630       -1.22420        0.54970
C         -3.56400        0.08620       -0.16310
C         -4.02680        0.27230       -1.47710
C         -3.79220        1.47940       -2.14290
C         -3.09990        2.51010       -1.50190
C         -2.64600        2.33770       -0.19180
C         -2.87960        1.13300        0.47830
C         -3.19250       -3.66440        0.66870
O         -2.18770       -4.32620        1.04620
O         -4.47070       -4.13730        0.95120
C          1.60400       -1.06380        1.57970
C          2.97810       -0.51030        1.17930
H          3.58350        3.24100       -0.97800
H          3.60870        3.52370        0.80750
H          5.14690        3.46850       -0.11680
H          4.87280        1.39060        1.11720
H          4.45250        1.01530       -1.91850
H          5.07970       -0.25140       -0.78940
H          6.00110        1.26070       -1.04270
H          2.35690        1.54130        1.28680
H          2.33150        0.15200       -1.47920
H          1.75280        1.81960       -1.12940
H          0.04080        0.95930        0.41630
H         -0.10990        0.18840       -1.20110
H          1.10830       -1.83790       -0.37840
H         -1.26440       -2.03630       -1.30990
H         -3.49230       -2.57140       -1.11130
H         -4.88650       -1.44280        0.53760
H         -3.50250       -1.14220        1.61840
H         -4.56630       -0.51670       -1.98560
H         -4.14680        1.61540       -3.15640
H         -2.91690        3.44280       -2.01950
H         -2.10920        3.13630        0.30370
H         -2.51330        1.01290        1.49020
H         -4.60410       -4.99830        1.46800
H          1.16450       -0.41310        2.36840
H          1.73760       -2.08160        2.00720
H          3.45940       -1.22510        0.47870
H          3.61220       -0.44180        2.08990
