30

C         -2.04410       -1.63060       -0.74470
C         -1.40700       -1.67030        0.64050
N         -0.73660       -0.39530        0.93880
C         -1.19620        0.42220        2.07030
C         -2.59020        0.99240        1.81270
C          0.42900        0.00550        0.18770
C          1.50330       -0.87930       -0.02900
C          2.61920       -0.43480       -0.77370
C          3.77720       -1.35150       -1.00740
N          2.65080        0.83680       -1.27220
C          1.59850        1.65670       -1.03980
N          1.47740        2.91880       -1.48300
C          0.25200        3.24720       -0.99420
N         -0.33320        2.24130       -0.29980
N          0.53860        1.25400       -0.33880
H         -2.76520       -0.78830       -0.80850
H         -1.26420       -1.50380       -1.52500
H         -2.58500       -2.58150       -0.93430
H         -2.20030       -1.88130        1.38990
H         -0.68500       -2.51080        0.69650
H         -1.21700       -0.19960        2.99120
H         -0.49160        1.26160        2.25900
H         -2.86600        1.68350        2.63670
H         -3.34410        0.17910        1.77190
H         -2.61370        1.55210        0.85550
H          1.49170       -1.87990        0.38220
H          4.53470       -0.86590       -1.65870
H          4.25160       -1.60900       -0.03730
H          3.42660       -2.28170       -1.50220
H         -0.21130        4.21240       -1.14800
