22

C         -2.68300       -0.07890       -0.61230
C         -1.63650        0.87880       -0.03580
C         -0.36110        0.19280        0.50790
C         -0.65280       -0.81770        1.62600
O          0.52190        1.19890        1.01020
C          1.70910        1.19290        0.29200
O          2.68180        1.94730        0.55670
N          1.72120        0.23170       -0.74780
C          2.91220       -0.33820       -1.36470
C          0.47310       -0.42940       -0.58640
O          0.14810       -1.45310       -1.24600
H         -3.06350       -0.76810        0.16930
H         -2.26680       -0.66320       -1.45740
H         -3.54330        0.50990       -0.99470
H         -1.34980        1.60540       -0.82770
H         -2.10970        1.46110        0.78470
H          0.29850       -1.16830        2.08110
H         -1.19210       -1.70460        1.23200
H         -1.26610       -0.34360        2.42150
H          3.64190        0.46660       -1.59340
H          2.63960       -0.84940       -2.31180
H          3.37740       -1.07070       -0.67220
