31

C         -0.91300        1.21690        1.57110
C         -0.99470        0.22700        0.39000
C          0.08560        0.59360       -0.67650
C          1.49810        0.27630       -0.21680
C          2.43890        1.31420       -0.07330
C          3.74330        1.03720        0.34650
C          4.12490       -0.27600        0.62700
C          3.20230       -1.31490        0.48910
C          1.89640       -1.04370        0.06940
O         -0.13810        0.05220       -1.97450
C         -1.00760       -1.05970       -1.96680
C         -2.39040       -0.69660       -1.40130
N         -2.32230        0.25860       -0.26860
C         -3.43230        0.00090        0.66870
H          0.13130        1.30520        1.93770
H         -1.26990        2.22260        1.26200
H         -1.52250        0.85820        2.42640
H         -0.80340       -0.79480        0.79090
H          0.00850        1.69520       -0.81700
H          2.16530        2.34030       -0.28470
H          4.45880        1.84220        0.45440
H          5.13510       -0.48860        0.95250
H          3.49850       -2.33230        0.70980
H          1.20300       -1.86650       -0.01750
H         -0.56670       -1.90250       -1.39540
H         -1.13050       -1.41930       -3.01020
H         -2.99410       -0.23100       -2.20980
H         -2.89350       -1.64880       -1.11330
H         -3.24270       -0.91300        1.27430
H         -4.38920       -0.12520        0.11590
H         -3.57920        0.87210        1.33990
