28

C         -3.02130        0.69750        2.21560
N         -2.18320        0.35410        1.07230
C         -2.37250        0.74120       -0.27420
O         -3.32030        1.47980       -0.65220
C         -1.33930        0.18320       -1.19440
C         -0.39280       -0.64250       -0.26120
C         -0.42000       -2.14000       -0.63040
C          1.04110       -0.09540       -0.33640
C          1.73730       -0.15750       -1.56310
C          3.04080        0.33340       -1.67510
C          3.67190        0.90290       -0.56970
C          2.99800        0.98950        0.64830
C          1.69340        0.50080        0.76830
C         -1.03850       -0.47630        1.09580
O         -0.64800       -1.06390        2.14150
H         -3.43890       -0.22880        2.66260
H         -2.41220        1.22890        2.97630
H         -3.85970        1.35520        1.90420
H         -0.81560        1.02390       -1.69960
H         -1.83220       -0.44870       -1.96490
H         -0.11170       -2.30040       -1.68450
H         -1.44530       -2.55430       -0.51270
H          0.26800       -2.71280        0.02840
H          1.26660       -0.57750       -2.44250
H          3.56040        0.27580       -2.62290
H          4.68110        1.28400       -0.65880
H          3.48590        1.44120        1.50250
H          1.20700        0.60670        1.72670
