42

C         -2.35970       -0.60670        1.89620
C         -1.84360        0.07120        0.60530
C         -0.46260       -0.51770        0.16320
C          0.82190        0.36070        0.41200
C          0.72080        0.93660        1.77630
N          0.64410        1.38710        2.83990
C          2.11170       -0.49800        0.38600
C          3.31930        0.02920        0.90640
C          4.50610       -0.70670        0.86620
C          4.52460       -1.97470        0.28890
C          3.35900       -2.50480       -0.26130
C          2.16670       -1.77580       -0.22540
C          0.99950        1.52810       -0.64050
C         -0.12810        2.57480       -0.65600
C          1.23960        1.03190       -2.08130
N         -2.81390        0.00210       -0.52240
C         -3.34770       -1.34850       -0.77710
C         -3.91220        0.97330       -0.38430
H         -1.63950       -0.43940        2.72420
H         -2.47370       -1.70300        1.76400
H         -3.33310       -0.17680        2.20790
H         -1.70560        1.13390        0.88250
H         -0.50820       -0.78600       -0.91120
H         -0.33200       -1.48630        0.69480
H          3.34600        1.01780        1.34690
H          5.41520       -0.28860        1.27890
H          5.44600       -2.54160        0.25590
H          3.38070       -3.48090       -0.72870
H          1.30580       -2.21700       -0.70500
H          1.91740        2.09100       -0.35600
H          0.17460        3.44210       -1.28130
H         -0.33120        2.96400        0.36290
H         -1.05500        2.15530       -1.09710
H          1.49730        1.89140       -2.73660
H          0.33440        0.54780       -2.50120
H          2.08980        0.32180       -2.13010
H         -4.09540       -1.64230       -0.00800
H         -3.84010       -1.37180       -1.77250
H         -2.53210       -2.10160       -0.79620
H         -4.56480        0.73030        0.48110
H         -4.53250        0.97640       -1.30620
H         -3.50950        2.00120       -0.26110
