32

O          1.78260       -1.20220        2.76280
C          1.38300       -0.89030        1.60830
C          2.34520       -0.31840        0.64110
C          3.39840        0.49610        1.09260
C          4.32070        1.02640        0.18500
C          4.20740        0.73940       -1.17750
C          3.17500       -0.08340       -1.63440
C          2.25080       -0.61620       -0.73060
C         -0.03230       -1.12130        1.25890
C         -0.87180       -2.05120        1.86440
C         -2.15930       -1.79680        1.40200
C         -2.02540       -0.74050        0.52500
N         -0.76930       -0.35210        0.43480
C         -0.62410        0.98760       -0.09080
C         -2.06900        1.39110       -0.47710
C         -3.00360        0.24790        0.01410
C         -3.87000       -0.29580       -1.09440
O         -3.72840       -1.47770       -1.50940
O         -4.84690        0.51100       -1.67000
H          3.49990        0.73140        2.14500
H          5.12390        1.65990        0.53860
H          4.92240        1.15030       -1.87850
H          3.09320       -0.31240       -2.68900
H          1.46760       -1.26530       -1.10190
H         -0.59720       -2.77040        2.62480
H         -3.07910       -2.24580        1.75180
H          0.03860        0.98850       -0.98090
H         -0.22370        1.66440        0.69490
H         -2.13260        1.52830       -1.57970
H         -2.34490        2.35080        0.01150
H         -3.64130        0.60340        0.85240
H         -4.98980        1.46350       -1.35620
