68

C         -3.79220        0.89610        1.96360
C         -3.64300        0.73800        0.43750
C         -5.04300        0.51260       -0.20620
C         -5.73550       -0.80110        0.21060
C         -7.11200       -0.94760       -0.37480
O         -7.60020       -0.06450       -1.13160
O         -7.85660       -2.08330       -0.07390
C         -2.59850       -0.36800        0.04450
C         -2.52820       -0.59580       -1.47390
C         -1.10140       -1.01360       -1.80610
C         -0.33520       -1.09130       -0.47310
C          1.22800       -0.87950       -0.54290
C          1.81570       -1.00920       -1.96680
C          3.34920       -1.09220       -1.98880
C          4.07100       -0.26570       -0.89080
C          4.63620       -1.19750        0.20970
C          5.46600       -0.41090        1.23400
O          5.98650       -1.26980        2.21750
C          4.63300        0.70460        1.87570
C          4.02790        1.62870        0.80800
C          3.19590        0.89670       -0.30150
C          2.92000        1.95540       -1.41900
C          1.84140        0.32040        0.28550
C          0.86380        1.43610        0.77480
C         -0.60220        1.28410        0.35860
O         -0.76330        1.75170       -0.95780
C         -1.10920       -0.18220        0.50490
C         -0.91830       -0.69740        1.96150
H         -4.71180        1.46580        2.21620
H         -3.84460       -0.09390        2.46410
H         -2.95040        1.47570        2.38700
H         -3.28960        1.71310        0.03920
H         -5.69920        1.36710        0.07250
H         -4.96140        0.54380       -1.31300
H         -5.82920       -0.84600        1.31540
H         -5.13540       -1.67050       -0.12630
H         -8.78700       -2.21070       -0.45400
H         -2.96070       -1.32750        0.47590
H         -3.24740       -1.38410       -1.78770
H         -2.76830        0.33730       -2.03000
H         -1.09110       -1.99770       -2.32470
H         -0.67680       -0.25530       -2.49300
H         -0.49750       -2.14250       -0.12980
H          1.62440       -1.79480       -0.04300
H          1.49510       -0.17170       -2.61140
H          1.42240       -1.93400       -2.44360
H          3.69310       -0.74110       -2.98700
H          3.64700       -2.16270       -1.93100
H          4.96500        0.19070       -1.37610
H          3.81900       -1.74460        0.72360
H          5.30040       -1.95790       -0.25730
H          6.32750        0.05470        0.70570
H          5.21990       -1.69150        2.68750
H          5.29280        1.30900        2.53550
H          3.84000        0.27840        2.52430
H          3.40790        2.39380        1.32170
H          4.87000        2.17770        0.32850
H          3.72300        1.96470       -2.18630
H          2.87160        2.98620       -1.00620
H          1.95190        1.79910       -1.92830
H          2.13190       -0.17510        1.23370
H          0.89920        1.47550        1.88760
H          1.19720        2.44720        0.46940
H         -1.19090        1.93410        1.04270
H         -0.77330        2.74390       -0.91940
H          0.14720       -0.90570        2.18150
H         -1.46540       -1.64860        2.13260
H         -1.26220        0.04320        2.70780
