53

C         -4.00120        1.75960       -3.49500
C         -2.54920        1.74630       -3.02990
O         -2.47090        1.55800       -1.61920
C         -2.72090        0.33210       -0.99150
N         -2.98900       -0.80960       -1.67090
C         -3.09370       -1.72120       -0.69060
C         -3.27780       -3.09010       -0.85470
C         -3.27540       -3.89610        0.29210
C         -3.11960       -3.32010        1.56830
C         -2.96280       -1.92510        1.72080
C         -2.99400       -1.36890        3.07910
O         -3.86480       -0.51300        3.39140
O         -2.12140       -1.85620        4.04680
C         -2.91570       -1.14400        0.54300
N         -2.66190        0.17460        0.35620
C         -2.08850        1.17310        1.26750
C         -0.58990        1.20580        1.12050
C          0.04310        2.29890        0.50660
C          1.42960        2.30410        0.33120
C          2.20030        1.21260        0.75840
C          3.66580        1.21180        0.56000
C          4.42130        2.20740        1.20300
C          5.81380        2.20780        1.11980
C          6.47020        1.21400        0.39650
C          5.73640        0.22500       -0.26100
C          4.33000        0.21500       -0.20560
C          3.59920       -0.81240       -0.98930
N          2.33130       -0.68800       -1.43400
N          2.09360       -1.79830       -2.11230
N          3.17370       -2.55870       -2.08680
N          4.14090       -1.97640       -1.40030
C          1.57150        0.13090        1.39400
C          0.18570        0.12550        1.56890
H         -4.04190        1.97350       -4.58370
H         -4.47930        0.77580       -3.30850
H         -4.56520        2.54740       -2.95220
H         -1.97930        0.95120       -3.55780
H         -2.08820        2.72490       -3.28020
H         -3.39560       -3.52410       -1.83920
H         -3.40800       -4.96600        0.19710
H         -3.16340       -3.96180        2.44010
H         -2.14940       -1.50380        4.99610
H         -2.52390        2.16760        1.02690
H         -2.34430        0.98490        2.32040
H         -0.53660        3.14160        0.15090
H          1.90090        3.15020       -0.15380
H          3.93000        2.97380        1.79060
H          6.38560        2.97500        1.62580
H          7.55100        1.21420        0.33730
H          6.27150       -0.52160       -0.83480
H          3.25370       -3.49040       -2.55010
H          2.15450       -0.71220        1.74430
H         -0.28180       -0.72430        2.04800
