40

C         -4.78750       -0.91930       -0.74180
C         -4.56770       -0.44520        0.70020
C         -5.28270        0.88830        0.97370
N         -3.13100       -0.41630        1.04620
C         -2.37960        0.69840        0.44570
C         -0.86880        0.42830        0.54820
O         -0.47130        0.29810        1.89110
C         -0.05940        1.53820       -0.14770
O          1.34330        1.29200       -0.03830
C          2.06000        0.29010       -0.71920
C          1.48410       -0.45550       -1.76760
C          2.21990       -1.44120       -2.42720
C          3.53990       -1.70000       -2.06070
C          4.13930       -0.96920       -1.02660
C          5.46910       -1.22580       -0.65710
C          6.06500       -0.49690        0.37420
C          5.34160        0.49110        1.04420
C          4.01690        0.75810        0.68810
C          3.39870        0.03460       -0.34970
H         -4.19550       -1.83940       -0.93340
H         -4.49640       -0.14170       -1.47750
H         -5.86140       -1.15630       -0.89990
H         -5.04860       -1.20680        1.35470
H         -5.06990        1.23010        2.00870
H         -6.38060        0.75500        0.86960
H         -4.95930        1.67250        0.25680
H         -3.05040       -0.33990        2.08780
H         -2.63690        0.81110       -0.62820
H         -2.62230        1.65200        0.96630
H         -0.66300       -0.53600        0.03790
H         -0.66850        1.15770        2.34790
H         -0.35240        1.64700       -1.21360
H         -0.27700        2.50850        0.34770
H          0.46790       -0.27990       -2.08940
H          1.76410       -2.00660       -3.22990
H          4.09260       -2.46940       -2.58670
H          6.04650       -1.98900       -1.16530
H          7.09070       -0.69870        0.65520
H          5.80880        1.05230        1.84320
H          3.48180        1.52970        1.22750
