63

C         -0.68020        5.82490        1.37270
C         -0.95630        4.38440        1.04520
O         -2.07640        4.07390        0.66440
C          0.10930        3.30210        1.20080
O          1.32560        3.87460        1.63520
C          0.33460        2.60830       -0.17530
C          1.08670        1.30730       -0.00300
C          2.17650        0.98250       -0.82570
O          2.49240        1.85070       -1.87620
C          2.89130       -0.22000       -0.60880
C          2.40380       -1.16210        0.33030
C          1.28290       -0.84210        1.13720
O          0.85260       -1.78220        2.08140
C          0.63450        0.40940        0.98130
C         -0.57750        0.84460        1.80220
O         -1.75710        0.83310        1.01290
C         -2.24580       -0.47660        0.77200
C         -1.98100       -0.83970       -0.71680
C         -3.24870       -0.65640       -1.56650
N         -3.61970        0.76390       -1.60870
C         -4.39640       -1.52200       -0.97410
O         -5.65080       -1.00820       -1.35110
C         -4.27140       -1.63040        0.57420
C         -5.62200       -1.81170        1.27130
O         -3.63130       -0.48020        1.09540
C         -0.34690        2.28440        2.30440
C          3.08280       -2.49070        0.44490
O          2.71630       -3.32820        1.31390
C          4.18870       -2.84860       -0.47110
C          4.72590       -4.14980       -0.47990
C          5.78030       -4.47320       -1.33690
C          6.31160       -3.50430       -2.18840
C          5.78980       -2.20900       -2.18610
C          4.72340       -1.87390       -1.33180
C          4.17800       -0.50230       -1.30700
O          4.85770        0.43520       -1.80590
H          0.09750        6.22630        0.69050
H         -0.33360        5.91060        2.42370
H         -1.59980        6.43680        1.25280
H          1.68130        4.45590        0.91300
H         -0.63890        2.37330       -0.65680
H          0.85200        3.30570       -0.86770
H          3.02760        1.57670       -2.68860
H          0.09530       -1.65740        2.73430
H         -0.72600        0.25140        2.72580
H         -1.75070       -1.24660        1.40730
H         -1.66140       -1.90360       -0.78170
H         -1.14910       -0.23490       -1.13730
H         -3.03400       -1.00340       -2.60310
H         -2.79470        1.31580       -1.93950
H         -4.34980        0.89490       -2.34580
H         -4.29720       -2.55740       -1.37890
H         -5.77700       -1.23570       -2.30940
H         -3.67630       -2.54330        0.82010
H         -5.46180       -1.98650        2.35640
H         -6.15830       -2.68800        0.84850
H         -6.24970       -0.90270        1.15320
H         -1.27050        2.63020        2.82120
H          0.42830        2.23650        3.10270
H          4.33090       -4.91760        0.17350
H          6.18700       -5.47630       -1.33940
H          7.12980       -3.75670       -2.85050
H          6.21620       -1.47170       -2.85490
