17

N          2.27860        0.40390        0.66350
C          1.59860        0.12920       -0.56140
O          1.95750        0.71240       -1.61890
C          0.43250       -0.81670       -0.59090
C         -0.90890       -0.06550       -0.45960
N         -2.03950       -0.97280       -0.66640
C         -1.03960        0.59820        0.88340
O         -1.05400       -0.09350        1.93750
O         -1.14370        1.98350        0.96300
H          1.98300       -0.05620        1.55290
H          3.07880        1.07430        0.68260
H          0.53640       -1.56860        0.22170
H          0.45170       -1.36990       -1.55510
H         -0.95100        0.72290       -1.24480
H         -2.00940       -1.32590       -1.65070
H         -1.94120       -1.80270       -0.03610
H         -1.22970        2.44720        1.85940
