48

C          1.23160        0.60340        2.10860
C          1.76020       -0.34160        1.02090
C          2.38000        0.44170       -0.15820
N          3.59790        1.16340        0.27850
C          3.76250        2.41240       -0.48300
C          4.79920        0.32620        0.11190
C          0.71960       -1.40750        0.58220
N         -0.60360       -0.88240        0.16620
C         -0.70110        0.01900       -0.94760
C         -0.11340       -0.29750       -2.18470
C         -0.21330        0.59100       -3.25820
C         -0.91430        1.78970       -3.11100
C         -1.52330        2.09900       -1.89210
C         -1.41580        1.21590       -0.80530
C         -2.11510        1.50020        0.49070
C         -3.32710        0.59250        0.65720
C         -3.06560       -0.90240        0.78920
C         -4.19630       -1.67010        1.13210
C         -4.12140       -3.05400        1.26210
C         -2.91900       -3.70870        1.03270
C         -1.78400       -2.98160        0.68250
C         -1.81460       -1.57220        0.57580
H          2.08070        0.99250        2.71000
H          0.72110        1.47750        1.66080
H          0.53680        0.07390        2.79480
H          2.58020       -0.92680        1.49150
H          2.60770       -0.24890       -1.00220
H          1.62030        1.16010       -0.53430
H          2.91130        3.09690       -0.27810
H          3.81410        2.21210       -1.57670
H          4.68710        2.94120       -0.16490
H          4.98270        0.09040       -0.96030
H          5.68850        0.85160        0.52190
H          4.69690       -0.62460        0.67470
H          0.59170       -2.08380        1.45600
H          1.14640       -2.03320       -0.23020
H          0.41830       -1.22990       -2.31920
H          0.24760        0.34710       -4.20660
H         -0.99640        2.47390       -3.94560
H         -2.08240        3.02160       -1.79850
H         -2.45070        2.56000        0.52330
H         -1.44050        1.35440        1.35380
H         -4.02170        0.75840       -0.19590
H         -3.85660        0.93210        1.57500
H         -5.15330       -1.18910        1.29820
H         -5.00420       -3.62160        1.52720
H         -2.86790       -4.78710        1.11130
H         -0.88080       -3.53530        0.46340
