57

C          5.65490        2.44470        0.98550
C          5.84930        1.27660        0.02460
C          4.55050        0.87540       -0.59990
O          3.95080        1.67620       -1.36780
O          4.02290       -0.39290       -0.33340
C          2.75110       -0.83620       -0.81480
C          2.71450       -2.35500       -0.84390
C          1.24000       -2.69010       -0.81680
C          0.63470       -1.67050        0.15440
C         -0.91070       -1.43340        0.02290
C         -1.50210       -1.48880       -1.40960
C         -3.02470       -1.31540       -1.40690
C         -3.47050       -0.11460       -0.60270
C         -4.50840        0.61640       -1.04890
C         -5.13200        1.66920       -0.23280
O         -6.07580        2.35100       -0.71310
C         -4.70670        1.88730        1.18520
C         -3.23060        1.51680        1.35570
C         -2.88090        0.09310        0.79340
C         -3.50980       -0.95620        1.75120
C         -1.31400       -0.10850        0.72950
C         -0.56190        1.10420        0.09310
C          0.80350        0.79100       -0.55210
C          1.54810       -0.40400        0.08650
C          2.04100       -0.01090        1.50690
H          5.26220        3.33180        0.44390
H          4.94630        2.16450        1.79410
H          6.62940        2.71340        1.44490
H          6.27450        0.41580        0.58420
H          6.56810        1.56330       -0.77250
H          2.61650       -0.49450       -1.86710
H          3.20780       -2.75900       -1.75490
H          3.21070       -2.77220        0.06110
H          0.86240       -2.56190       -1.85110
H          1.06570       -3.73570       -0.48160
H          0.77280       -2.12800        1.16310
H         -1.36850       -2.28350        0.56970
H         -1.30760       -2.48370       -1.86100
H         -1.05350       -0.72220       -2.06940
H         -3.37190       -1.24670       -2.46170
H         -3.49120       -2.22470       -0.97090
H         -4.93510        0.41440       -2.02450
H         -4.84540        2.95700        1.45520
H         -5.34860        1.28810        1.86280
H         -2.95560        1.58460        2.43110
H         -2.66640        2.31450        0.83450
H         -3.09420       -0.85090        2.77620
H         -4.61100       -0.83960        1.80910
H         -3.33870       -1.99700        1.41710
H         -0.96770       -0.18620        1.78280
H         -1.19010        1.56760       -0.69880
H         -0.39950        1.87120        0.88210
H          0.64810        0.60120       -1.63430
H          1.43750        1.70260       -0.50270
H          2.66570       -0.82050        1.94210
H          1.19700        0.17290        2.19910
H          2.64750        0.91830        1.47380
