33

C         -4.45190        0.41520        0.16800
N         -3.78980       -0.48710        1.11640
N         -4.49700       -1.04410        2.19890
O         -5.70840       -0.80860        2.38840
C         -2.39550       -0.81940        0.97590
O         -1.85590       -1.57540        1.82970
N         -1.60910       -0.30990       -0.11700
C         -0.16710       -0.56660       -0.22420
C          0.33550       -0.29280       -1.65880
O         -0.31990       -1.16520       -2.53910
O          1.73080       -0.52580       -1.74310
C          2.44330        0.41920       -0.96300
C          3.94200        0.25650       -1.25140
O          4.36040       -1.04760       -0.95350
C          2.13450        0.22180        0.54110
O          2.79810        1.20060        1.29960
C          0.61270        0.28530        0.80450
O          0.14550        1.61400        0.84640
H         -4.43010       -0.02760       -0.84990
H         -3.93490        1.39800        0.16080
H         -5.51250        0.59170        0.43920
H         -2.07200        0.24370       -0.87120
H          0.02560       -1.64230       -0.00890
H          0.09030        0.75420       -1.95960
H         -0.04960       -0.89550       -3.45560
H          2.17770        1.45730       -1.27030
H          4.52730        0.98970       -0.65240
H          4.12540        0.46700       -2.32900
H          5.33070       -1.07910       -1.15970
H          2.49430       -0.79100        0.84080
H          2.78860        0.88700        2.24170
H          0.43420       -0.15040        1.81150
H          0.29680        2.02700       -0.04100
