24

O          3.97700       -0.06460        0.59400
C          3.48600       -0.12180       -0.52260
C          2.08590       -0.64450       -0.72240
O          2.01940       -1.98690       -0.30950
C          1.03270        0.23820        0.00230
O          1.21560        1.57700       -0.39080
C         -0.42180       -0.19740       -0.33940
O         -0.61540       -1.55580       -0.02860
C         -1.48710        0.67800        0.37980
O         -1.38210        2.00590       -0.06720
C         -2.91840        0.18190        0.10520
O         -3.16550       -1.01130        0.79670
H          4.06640        0.20830       -1.37810
H          1.87300       -0.61400       -1.81310
H          2.16700       -2.00940        0.67250
H          1.17390        0.14050        1.10620
H          1.82590        1.99880        0.26930
H         -0.56680       -0.08050       -1.43640
H         -0.48400       -1.65880        0.95060
H         -1.29850        0.63610        1.47920
H         -1.78530        2.58140        0.63460
H         -3.64450        0.95260        0.44880
H         -3.06400        0.02900       -0.98810
H         -4.08960       -1.28270        0.55700
