56

C         -1.83310       -2.96100       -0.57170
N         -2.26990       -2.24190        0.63430
C         -2.20320       -3.08350        1.83810
C         -1.77000       -0.84160        0.76100
C         -2.95120        0.01720        1.15040
O         -3.92610        0.04100        0.41090
C         -2.96950        0.77630        2.45960
C         -4.08640        1.79440        2.49490
N         -4.11320        2.88120        1.56750
O         -5.00440        1.68540        3.35110
C         -1.62930        1.43300        2.70490
O         -1.56560        2.42570        3.41850
C         -0.34710        0.85370        2.12050
O          0.67040        0.91740        3.09720
C          0.08140        1.62430        0.88660
O         -0.51280        2.86830        0.63750
C          1.02450        1.11630        0.06030
C          1.74900        1.98100       -0.88340
O          2.01280        3.16910       -0.55280
C          2.32120        1.40200       -2.11610
C          2.71510        2.22350       -3.21030
O          2.45010        3.59420       -3.26920
C          3.35760        1.65620       -4.31090
C          3.52940        0.28160       -4.39590
C          3.07310       -0.54320       -3.37310
C          2.50210       -0.00580       -2.19770
C          1.94280       -0.96880       -1.12680
C          2.98260       -2.08540       -0.84370
O          0.78860       -1.57510       -1.65390
C          1.60180       -0.27370        0.24550
C          0.77630       -1.20860        1.20250
C         -0.55550       -0.63260        1.74200
H         -0.80340       -3.35440       -0.46610
H         -2.50940       -3.82330       -0.75250
H         -1.90200       -2.31020       -1.46860
H         -1.15760       -3.38990        2.05540
H         -2.63280       -2.54470        2.70910
H         -2.81360       -4.00000        1.69150
H         -1.45390       -0.46080       -0.23350
H         -3.13390        0.03660        3.27320
H         -4.88610        3.58230        1.59960
H         -3.36560        2.98530        0.84620
H          0.91820        1.87070        3.23020
H         -0.41470        3.36670       -0.23820
H          1.76820        4.06110       -2.68800
H          3.67730        2.28380       -5.13350
H          3.98530       -0.15140       -5.27720
H          3.16190       -1.60960       -3.51820
H          2.71930       -2.68370        0.05200
H          3.98890       -1.64540       -0.67210
H          3.04300       -2.80910       -1.68170
H          0.15620       -0.85100       -1.90260
H          2.57470       -0.08860        0.75770
H          1.41930       -1.43250        2.08330
H          0.59290       -2.20000        0.75720
H         -0.77360       -1.15270        2.69910
