59

C         -6.74540        4.40680        0.39960
O         -5.65960        3.77990        1.07460
C         -5.17130        2.50050        0.77080
C         -4.09570        2.00430        1.51690
C         -3.57210        0.73600        1.25100
C         -4.10850       -0.04850        0.21930
N         -3.60160       -1.36520       -0.03710
N         -4.37380       -2.44380       -0.05180
C         -3.58650       -3.52220       -0.26550
C         -4.09210       -4.90700       -0.29420
N         -5.49000       -5.16940       -0.16250
O         -3.29430       -5.87210       -0.42880
C         -2.27350       -3.09790       -0.41190
C         -2.32180       -1.74290       -0.24830
C         -1.11100       -0.92590       -0.37580
O         -1.15800        0.33190       -0.31470
N          0.13530       -1.61050       -0.62520
C          1.38990       -0.91190       -0.49280
C          2.36620       -0.99310       -1.50060
C          3.58190       -0.31740       -1.36390
C          3.84350        0.44650       -0.21650
N          5.09120        1.14920       -0.07860
C          5.05840        2.61860       -0.03400
C          6.37020        3.20120        0.49200
C          7.54190        2.64610       -0.31250
C          7.66740        1.13240       -0.12640
C          6.33960        0.42560       -0.17160
O          6.33560       -0.83440       -0.22730
C          2.87150        0.52860        0.79100
C          1.65550       -0.14670        0.65510
C          0.09980       -2.97010       -1.20790
C         -0.99140       -3.86120       -0.57100
C         -5.20090        0.43380       -0.51390
C         -5.72540        1.70250       -0.24890
H         -7.66940        3.80260        0.51960
H         -6.50580        4.52870       -0.67790
H         -6.91660        5.40960        0.84150
H         -3.66810        2.60260        2.31150
H         -2.75660        0.35970        1.85570
H         -5.84310       -6.15190       -0.17920
H         -6.17760       -4.39170       -0.05110
H          2.18080       -1.56600       -2.40000
H          4.31690       -0.37890       -2.15660
H          4.23210        2.96740        0.62180
H          4.86610        3.00650       -1.05810
H          6.49270        2.94770        1.56810
H          6.34570        4.30810        0.39530
H          7.39880        2.87990       -1.39090
H          8.48330        3.13540        0.01860
H          8.14680        0.91810        0.85310
H          8.32540        0.72900       -0.92610
H          3.06240        1.10390        1.68800
H          0.92450       -0.08480        1.45150
H          1.08170       -3.47430       -1.07260
H         -0.09280       -2.88490       -2.29950
H         -0.65340       -4.20020        0.43140
H         -1.14880       -4.75060       -1.21580
H         -5.63860       -0.17140       -1.29790
H         -6.56150        2.05150       -0.83930
