50

C         -3.24180       -0.72600        2.49740
O         -1.82500       -0.77800        2.50270
C         -1.23420       -0.54040        1.22120
C         -1.28270        0.96970        0.87760
C         -0.88240        1.43240       -0.39740
C         -0.83500        2.79850       -0.68490
C         -1.16130        3.73220        0.29770
C         -1.52390        3.30140        1.57360
C         -1.57070        1.93580        1.86870
C         -1.91390       -1.43280        0.13900
C         -1.73510       -2.83400        0.15140
C         -2.36810       -3.65220       -0.78830
C         -3.22820       -3.09820       -1.73400
C         -3.47970       -1.72800       -1.72280
C         -2.84950       -0.90520       -0.78540
C          0.30420       -0.86960        1.34420
O          0.87870       -1.07290        0.04680
C          1.92110       -0.30970       -0.49300
N          2.40370       -0.62560       -1.72280
C          3.40200        0.09780       -2.29620
C          3.89490       -0.26310       -3.66100
C          3.93660        1.19730       -1.61770
C          3.43710        1.50730       -0.34940
C          3.95990        2.68730        0.40530
N          2.44010        0.75230        0.18190
C          0.63770       -2.04260        2.24440
O          0.38930       -1.97090        3.47720
O          1.26790       -3.18780        1.75660
H         -3.65960       -1.70590        2.18330
H         -3.64580        0.08320        1.85110
H         -3.59060       -0.53080        3.53190
H         -0.61270        0.73370       -1.17790
H         -0.53770        3.13300       -1.67040
H         -1.12090        4.79040        0.07420
H         -1.75590        4.02790        2.34170
H         -1.81510        1.64490        2.88110
H         -1.13190       -3.31410        0.90120
H         -2.20420       -4.72200       -0.77050
H         -3.72210       -3.73460       -2.45690
H         -4.17920       -1.30280       -2.43110
H         -3.12600        0.13900       -0.77600
H          0.80090       -0.00790        1.84540
H          3.46860       -1.23650       -3.98430
H          3.59060        0.52060       -4.38600
H          5.00230       -0.34620       -3.65430
H          4.72090        1.79640       -2.06540
H          3.57710        2.68250        1.44800
H          5.06960        2.65800        0.43520
H          3.63080        3.62290       -0.09340
H          1.49900       -3.30660        0.77830
