15

O         -2.20860        0.26820       -2.10400
C         -1.86090       -0.38210       -1.08240
O         -2.71090       -1.38160       -0.61010
C         -0.58000       -0.06080       -0.40680
C          0.06630       -1.00220        0.41730
C          1.27610       -0.68310        1.04240
C          1.85640        0.57230        0.84950
C          1.23100        1.51040        0.02600
C          0.02200        1.19680       -0.60250
H         -2.54670       -1.87190        0.25940
H         -0.34140       -1.99270        0.56370
H          1.76770       -1.41320        1.67240
H          2.79300        0.81610        1.33400
H          1.68310        2.48210       -0.12590
H         -0.44720        1.94180       -1.23320
