37

C         -0.62490        4.46570       -1.28630
C         -0.28100        3.93270        0.06600
O          0.29980        4.67730        0.90150
N         -0.61220        2.57920        0.40570
C         -0.27350        1.99460        1.71040
C         -0.38920        0.45740        1.67090
C          0.57930       -0.19720        0.72000
O          1.45060        0.48790        0.11640
N          0.49980       -1.61400        0.50660
C          1.30310       -2.31900       -0.50070
C          0.41330       -2.75420       -1.67950
C         -0.19100       -1.54820       -2.41650
C         -1.01840       -1.90700       -3.62590
O         -1.51270       -0.97340       -4.31070
O         -1.26650       -3.22350       -4.01870
C          1.98050       -3.51860        0.10870
O          1.73440       -3.86970        1.29470
O          2.89660       -4.24470       -0.64670
C         -1.17250        2.54280        2.78590
O         -2.25300        3.12210        2.49080
O         -0.81510        2.38850        4.12190
H         -1.72290        4.40990       -1.43860
H         -0.11660        3.85890       -2.06440
H         -0.30060        5.52350       -1.38500
H         -1.07480        1.98730       -0.32210
H          0.77510        2.26400        1.96750
H         -0.20090        0.04370        2.68550
H         -1.42360        0.17540        1.37510
H         -0.25030       -2.14590        1.00490
H          2.10920       -1.65720       -0.88570
H         -0.40410       -3.40630       -1.29880
H          1.03140       -3.33640       -2.39850
H         -0.83890       -0.97550       -1.71890
H          0.63250       -0.87860       -2.74740
H         -0.92000       -4.02950       -3.51630
H          3.36550       -5.05410       -0.25780
H         -1.40850        2.74220        4.86270
