31

C          3.09580        1.35430       -0.54280
C          1.73450        1.05680        0.08990
C          1.12260       -0.29710       -0.37630
C          1.91970       -1.47610        0.22830
C         -0.43620       -0.35730       -0.10780
C         -1.02330       -1.75420       -0.49460
C         -2.55480       -1.83370       -0.42030
C         -0.72640       -0.10340        1.37410
O         -0.37180       -0.95590        2.23260
N         -1.39710        1.07550        1.82660
C         -1.93250        2.02490        0.91260
O         -2.52820        3.04750        1.34360
N         -1.80240        1.81530       -0.48820
C         -1.09720        0.68720       -1.01210
O         -1.00850        0.56230       -2.26450
H          3.87470        0.66590       -0.15700
H          3.40240        2.39020       -0.28520
H          3.03900        1.27120       -1.64890
H          1.83840        1.07010        1.19680
H          1.06290        1.89700       -0.18410
H          1.27030       -0.37200       -1.47770
H          1.87640       -1.47540        1.33560
H          2.98590       -1.41690       -0.06890
H          1.56150       -2.45000       -0.15930
H         -0.63190       -2.54140        0.18390
H         -0.70750       -2.02430       -1.52640
H         -2.88020       -2.87250       -0.63940
H         -3.02560       -1.16290       -1.16870
H         -2.91510       -1.56250        0.59400
H         -1.52460        1.22870        2.85250
H         -2.22090        2.50850       -1.14870
