18

O          2.29340       -0.75510        1.88160
C          2.30800       -0.34080        0.69160
O          3.12320        0.72960        0.33740
C          1.41750       -0.97070       -0.33170
C          0.03680       -0.37550       -0.26340
C         -1.04160       -1.12760        0.23380
C         -2.32170       -0.56770        0.29520
C         -2.53500        0.74350       -0.13880
C         -1.46850        1.49770       -0.63540
C         -0.18680        0.94220       -0.69870
H          3.72000        1.17700        1.02280
H          1.38520       -2.06800       -0.15450
H          1.84040       -0.81490       -1.34750
H         -0.89230       -2.14390        0.57650
H         -3.14860       -1.15050        0.68000
H         -3.52640        1.17500       -0.09030
H         -1.63490        2.51290       -0.97170
H          0.63110        1.53660       -1.08690
