59

O         -2.27470       -2.92640        0.92540
C         -2.28440       -1.66650        0.98730
N         -3.53560       -0.95470        0.94840
C         -4.81710       -1.60140        0.85700
C         -5.11100       -2.73560        1.63360
C         -6.36820       -3.33960        1.55890
C         -7.35400       -2.81510        0.72110
C         -7.08810       -1.66930       -0.04770
C         -8.05130       -1.09910       -0.89630
O         -9.20370       -1.60030       -1.00220
C         -7.72650        0.04020       -1.63330
C         -6.44310        0.59090       -1.51020
C         -6.05640        1.79040       -2.26780
N         -4.84010        2.36640       -2.19390
N         -4.90440        3.40080       -3.01630
N         -6.10740        3.44600       -3.56210
N         -6.86110        2.45460       -3.12020
O         -5.55250        0.02710       -0.69840
C         -5.81400       -1.05870        0.02610
C         -0.99400       -0.94380        1.09060
C          0.10470       -1.56240        1.71150
C          1.32990       -0.89790        1.81320
C          1.48670        0.38900        1.28970
O          2.73670        1.01120        1.41670
C          3.05280        2.30220        0.90180
C          4.51540        2.64630        1.20200
C          5.51320        1.96810        0.24750
C          5.60480        0.44860        0.45470
C          6.72160       -0.14170       -0.36770
C          6.43790       -0.92660       -1.49900
C          7.47870       -1.47540       -2.25500
C          8.80750       -1.24880       -1.88680
C          9.09850       -0.47390       -0.76100
C          8.06130        0.07700       -0.00220
C          0.39500        1.00850        0.65460
C         -0.83220        0.34600        0.55320
H         -3.52760        0.08870        0.93430
H         -4.37770       -3.14030        2.31840
H         -6.58250       -4.21310        2.16110
H         -8.32160       -3.30020        0.68260
H         -8.46290        0.48760       -2.29050
H         -6.41970        4.16700       -4.24890
H          0.01270       -2.55720        2.13010
H          2.16390       -1.38690        2.30080
H          2.40190        3.05650        1.39500
H          2.86940        2.33450       -0.19440
H          4.75710        2.39060        2.25680
H          4.63790        3.74620        1.09470
H          5.23490        2.18600       -0.80700
H          6.51180        2.42230        0.42870
H          4.64100       -0.01960        0.16350
H          5.78130        0.21650        1.52770
H          5.41380       -1.11000       -1.79930
H          7.25470       -2.07660       -3.12670
H          9.61150       -1.67470       -2.47310
H         10.12800       -0.30120       -0.47520
H          8.30070        0.67090        0.87120
H          0.48540        1.99890        0.23000
H         -1.63890        0.83820        0.02740
