57

N          9.58980       -0.51100       -0.60520
C          8.26930       -0.09800       -0.26190
N          8.08260        0.96610        0.56260
C          6.83740        1.38540        0.90970
O          6.71720        2.42860        1.82720
C          5.71300        0.72920        0.36780
C          5.93140       -0.40140       -0.43050
N          7.19780       -0.78520       -0.73570
N          4.81320       -1.16610       -0.90130
C          3.43170       -0.77210       -0.61230
C          3.35810        0.05830        0.68720
C          1.91670        0.53960        0.96080
N          1.03010       -0.60400        1.19140
C         -0.13820       -0.88510        0.40230
C         -0.92160        0.14490       -0.14700
C         -2.05910       -0.15800       -0.90050
C         -2.44750       -1.49330       -1.09990
C         -3.64320       -1.82140       -1.90920
O         -3.65520       -2.88240       -2.58970
N         -4.78070       -0.94810       -1.96690
C         -5.35310       -0.31920       -0.77250
C         -5.81590        1.11310       -1.11480
C         -6.09320        1.98150        0.12480
C         -7.36220        1.59720        0.82200
O         -8.46800        1.69900        0.22610
O         -7.32010        1.13830        2.13470
C         -6.48470       -1.16800       -0.26480
O         -7.49000       -1.39160       -0.99220
O         -6.41820       -1.71680        1.01200
C         -1.66530       -2.52050       -0.54830
C         -0.52850       -2.21720        0.20590
N          4.35410        1.14940        0.60770
C          3.97900        2.52850        0.40100
O          4.76410        3.33040       -0.17250
H         10.41830        0.00630       -0.23600
H          9.74070       -1.33410       -1.22970
H          5.83410        2.68920        2.24650
H          4.98200       -1.97240       -1.54390
H          3.04540       -0.17290       -1.46490
H          2.80810       -1.68680       -0.51550
H          3.64970       -0.60260        1.53500
H          1.56810        1.14550        0.09880
H          1.90630        1.17330        1.87310
H          1.32070       -1.30520        1.91060
H         -0.67350        1.18400        0.02110
H         -2.63330        0.65260       -1.33070
H         -5.38750       -1.01020       -2.81650
H         -4.58440       -0.25740        0.02690
H         -6.70700        1.09010       -1.78050
H         -5.00310        1.61020       -1.68840
H         -5.23800        1.91530        0.83180
H         -6.17940        3.04310       -0.19190
H         -8.16900        0.87290        2.61950
H         -7.17240       -2.28980        1.37100
H         -1.94100       -3.55840       -0.69010
H          0.05780       -3.02330        0.62910
H          3.01650        2.90060        0.71960
