71

C         -7.29990        3.71450        1.13740
C         -6.15890        2.70940        1.15290
O         -6.67980        1.41930        1.39820
C         -5.66220        0.44400        1.27410
C         -5.69620       -0.17970       -0.12280
N         -4.61950       -1.16510       -0.26870
C         -3.29760       -0.94210       -0.52350
C         -2.66880        0.42180       -0.70990
C         -2.09460        0.57150       -2.14180
C         -0.57070        0.42170       -2.15730
N          0.06340        1.46590       -1.32210
C          1.53030        1.31930       -1.20780
C          1.97270        0.07780       -0.40450
C          3.45570        0.11660       -0.13730
C          3.94070        0.33660        1.15860
C          5.31560        0.37110        1.40230
C          6.24620        0.16660        0.36040
C          7.75140        0.25140        0.66550
C          8.11580        1.73600        0.88930
C          8.63690       -0.29270       -0.47960
C          8.06320       -0.58050        1.90290
O          8.63410       -0.06600        2.90230
O          7.72390       -1.93140        1.94880
C          5.74360       -0.03340       -0.94530
C          4.36730       -0.06730       -1.18560
C         -0.62340        1.76980       -0.03980
C         -1.60450        0.66780        0.38380
N         -2.57090       -2.08830       -0.61840
C         -3.48410       -3.05090       -0.40650
C         -3.27140       -4.42700       -0.38320
C         -4.37820       -5.25680       -0.12740
C         -5.65480       -4.69580        0.09950
C         -5.83660       -3.30060        0.06960
C         -4.71710       -2.50530       -0.19500
H         -8.02080        3.45770        0.33250
H         -7.82680        3.70680        2.11520
H         -6.90020        4.73380        0.95150
H         -5.44800        2.99820        1.95970
H         -5.63980        2.75640        0.16850
H         -5.86550       -0.35780        2.01540
H         -4.64390        0.83200        1.51140
H         -6.68540       -0.65820       -0.27860
H         -5.60290        0.59830       -0.90880
H         -3.44200        1.20810       -0.58960
H         -2.54850       -0.16600       -2.84040
H         -2.34740        1.58150       -2.53420
H         -0.21240        0.52110       -3.20470
H         -0.31350       -0.59730       -1.79990
H          1.94500        2.23460       -0.72950
H          1.97230        1.27410       -2.22720
H          1.74610       -0.85200       -0.96610
H          1.41900        0.02670        0.55580
H          3.25550        0.49250        1.98260
H          5.65520        0.56140        2.41260
H          7.86410        2.33740       -0.01120
H          7.55650        2.15690        1.75260
H          9.20330        1.85050        1.09050
H          8.33400       -1.32350       -0.76320
H          9.70350       -0.32250       -0.16590
H          8.57850        0.35880       -1.37780
H          7.25180       -2.38520        1.17610
H          6.39950       -0.16610       -1.79260
H          4.01100       -0.23600       -2.19450
H          0.09870        1.95170        0.78670
H         -1.19120        2.71650       -0.16700
H         -2.10460        0.96260        1.33180
H         -1.02410       -0.25830        0.58860
H         -2.28760       -4.84480       -0.55310
H         -4.25000       -6.33110       -0.10080
H         -6.49830       -5.34330        0.30080
H         -6.81240       -2.87370        0.25430
