38

C         -4.19470        1.39470       -0.37200
C         -2.78120        1.02590       -0.82320
C         -2.33380       -0.37640       -0.36050
C         -3.13960       -1.50420       -1.05450
O         -4.41550       -1.63590       -0.48840
N         -0.89160       -0.51070       -0.64700
C         -0.20140       -1.41880        0.28340
C          0.26320       -0.67530        1.55040
N          0.98540        0.58500        1.28370
C          2.17930        0.47330        0.41350
C          3.25140       -0.44520        1.06180
C          4.53080       -0.58520        0.23530
C          2.73600        1.89320        0.15720
O          3.54720        1.90360       -0.98570
H         -4.95060        0.80480       -0.92970
H         -4.31520        1.22340        0.71880
H         -4.37940        2.46930       -0.58200
H         -2.08250        1.77800       -0.39490
H         -2.71520        1.10420       -1.93040
H         -2.50580       -0.43650        0.73820
H         -2.60170       -2.47570       -0.97770
H         -3.24820       -1.28430       -2.13800
H         -4.29260       -2.08290        0.38960
H         -0.75120       -0.85060       -1.62800
H         -0.85250       -2.27100        0.57830
H          0.68230       -1.86840       -0.21890
H         -0.62960       -0.43810        2.16780
H          0.87740       -1.34920        2.18170
H          0.30240        1.25040        0.85090
H          1.88510        0.05290       -0.57290
H          3.50970       -0.06860        2.07540
H          2.84300       -1.47020        1.17330
H          5.12690        0.35010        0.27300
H          5.15590       -1.40040        0.65720
H          4.28800       -0.83720       -0.81890
H          1.89860        2.60760       -0.00720
H          3.31300        2.24320        1.04310
H          3.90700        2.82540       -1.06150
