18

N         -2.09580        2.08970       -0.00460
C         -1.29640        0.90450        0.04050
C         -1.89850       -0.34110        0.24550
C         -1.12000       -1.49780        0.28970
C          0.27140       -1.42650        0.12980
O          1.02530       -2.59930        0.17850
C          0.89410       -0.17320       -0.07830
C          2.36380       -0.04540       -0.25310
O          3.11070       -1.06020       -0.22130
O          2.93690        1.20780       -0.45570
C          0.09350        0.98470       -0.12030
H         -3.13240        2.04040        0.11410
H         -1.65760        3.02540       -0.15710
H         -2.97140       -0.41580        0.37100
H         -1.60090       -2.45460        0.44910
H          0.59420       -3.50430        0.32670
H          3.93770        1.30950       -0.57640
H          0.54550        1.95620       -0.27820
