29

C          4.72600       -0.34420        0.10410
C          3.23910       -0.23290        0.07970
C          2.37230       -0.88000        0.95290
C          1.12110       -0.47740        0.54580
C         -0.13650       -0.80490        1.03910
C         -1.26970       -0.24090        0.40340
C         -2.58880       -0.52030        0.82570
C         -2.87850       -1.43490        1.98780
C         -3.65580        0.07170        0.13780
C         -3.39630        0.91850       -0.94100
O         -4.35160        1.45210       -1.56320
O         -2.14870        1.16780       -1.31860
C         -1.08950        0.64080       -0.70990
C          0.21000        0.95900       -1.17240
C          0.41680        1.85970       -2.35690
C          1.29260        0.36610       -0.51790
O          2.56930        0.50350       -0.78740
H          5.16680        0.27650       -0.70380
H          5.11080        0.00890        1.08350
H          5.02370       -1.40260       -0.04840
H          2.62370       -1.54930        1.76540
H         -0.21950       -1.47820        1.88210
H         -2.40680       -1.03320        2.90910
H         -3.96940       -1.52930        2.17490
H         -2.47790       -2.44880        1.77710
H         -4.68060       -0.12110        0.43350
H         -0.21960        2.76490       -2.26290
H          0.14310        1.31710       -3.28580
H          1.47390        2.19130       -2.43380
