32

N         -3.12860       -2.06560        0.98270
C         -3.12190       -0.85880        0.21460
C         -4.33290       -0.25560       -0.18170
C         -4.32640        0.93530       -0.93520
C         -3.11250        1.53670       -1.30150
C         -1.92890        0.92060       -0.90080
C         -1.92000       -0.24350       -0.16310
C         -0.50970       -0.67420        0.13630
N          0.31500        0.34950       -0.52360
C          1.75310        0.55290       -0.30850
C          2.52470       -0.75940       -0.53890
C          4.02070       -0.58540       -0.25560
C          4.23970       -0.03940        1.12600
O          5.32050       -0.27650        1.72790
N          3.23790        0.76900        1.75360
C          2.01630        1.08820        1.07750
O          1.18590        1.86170        1.62610
C         -0.55890        1.30560       -1.12000
O         -0.17530        2.34050       -1.72720
H         -2.23780       -2.52010        1.28230
H         -4.03000       -2.51500        1.25860
H         -5.27900       -0.70470        0.09270
H         -5.26270        1.38950       -1.23230
H         -3.09820        2.45250       -1.87820
H         -0.33000       -0.67310        1.23240
H         -0.30820       -1.67420       -0.30220
H          2.12890        1.30320       -1.03840
H          2.38780       -1.08910       -1.59160
H          2.12840       -1.55860        0.12560
H          4.46800        0.11140       -0.99650
H          4.52470       -1.57130       -0.35330
H          3.40930        1.14790        2.71220
