17

O          2.69050        0.96950       -0.30980
C          2.05590       -0.11900       -0.29110
O          2.76340       -1.30950       -0.14600
C          0.55930       -0.14030       -0.50560
C         -0.11380        1.20290       -0.25730
C         -1.53810        0.83490        0.10080
C         -1.48820       -0.64030        0.49190
N         -0.10340       -1.10310        0.37540
H          2.29610       -2.20780       -0.17410
H          0.37360       -0.44390       -1.56020
H          0.35500        1.72520        0.60680
H         -0.07150        1.85410       -1.15760
H         -1.90920        1.46110        0.94150
H         -2.20320        0.97480       -0.77980
H         -2.12800       -1.23700       -0.19390
H         -1.86560       -0.78380        1.52950
H          0.32710       -1.03790        1.32960
