57

C         -4.63540        3.57760       -1.33240
C         -4.31660        2.40820       -0.40540
C         -5.32460        1.26460       -0.59040
C         -5.15930        0.14270        0.45100
C         -3.78280       -0.55150        0.45450
C         -3.43250       -1.24830       -0.88270
O         -4.43380       -2.16600       -1.24100
C         -2.07890       -1.93700       -0.91690
C         -1.24170       -2.05050        0.13050
C          0.11990       -2.71080       -0.00970
C          0.34400       -3.74500        1.11920
O         -0.84510       -4.36130        1.54320
C          0.99950       -2.98150        2.26920
C          1.64690       -1.82990        1.59260
O          2.42570       -1.08160        2.16310
C          1.28870       -1.70660        0.14680
C          0.96110       -0.25440       -0.28050
C          2.18880        0.61580       -0.31760
C          3.15160        0.43730       -1.23470
C          4.37710        1.30730       -1.26610
C          5.29940        1.00320       -0.07580
C          6.59560        1.82230       -0.12570
C          6.33890        3.28420        0.08270
O          6.62660        4.11160       -0.82310
O          5.78860        3.72910        1.28090
H         -4.60460        3.24810       -2.39290
H         -5.64200        3.98840       -1.10450
H         -3.88360        4.38200       -1.18830
H         -3.29070        2.05120       -0.63710
H         -4.34040        2.76630        0.64680
H         -5.24890        0.85180       -1.61840
H         -6.35360        1.67240       -0.48190
H         -5.95040       -0.61900        0.27940
H         -5.33940        0.56750        1.46270
H         -2.99580        0.18850        0.71280
H         -3.79900       -1.31240        1.26530
H         -3.38750       -0.46970       -1.67150
H         -4.45110       -2.87180       -0.54200
H         -1.77960       -2.35850       -1.87260
H         -1.49350       -1.62820        1.09690
H          0.19910       -3.22340       -0.99510
H          1.06180       -4.52080        0.76070
H         -1.12920       -4.95930        0.80340
H          0.24520       -2.60830        2.99560
H          1.75320       -3.61450        2.78550
H          2.14960       -2.08100       -0.45050
H          0.49380       -0.25540       -1.28950
H          0.23450        0.19520        0.43110
H          2.27960        1.41530        0.41280
H          3.04360       -0.33620       -1.99030
H          4.92530        1.11200       -2.21310
H          4.07030        2.37580       -1.25930
H          4.76950        1.20170        0.88180
H          5.56760       -0.07610       -0.09470
H          7.27740        1.46900        0.67700
H          7.10740        1.65590       -1.09910
H          5.60940        4.71390        1.43610
