34

N         -3.67870       -1.25120        2.25230
C         -3.44900       -0.69670        1.10460
N         -4.22560        0.44200        0.71930
N         -2.43570       -1.24170        0.23920
C         -1.99120       -0.61150       -1.00360
C         -1.14450        0.63820       -0.70900
C         -0.58510        1.25340       -1.96500
O          0.73580        0.82600       -2.05200
C          1.09660        0.42290       -0.74840
C          2.04130        1.48190       -0.14220
C          2.59390        1.03800        1.21950
C          3.30280       -0.31650        1.11080
C          2.36920       -1.38010        0.52250
C          1.81870       -0.93610       -0.83970
O         -0.04520        0.28780        0.07480
H         -3.14270       -2.08630        2.57830
H         -4.94260        0.82980        1.37220
H         -4.12240        0.89550       -0.21350
H         -1.98530       -2.14670        0.50580
H         -2.86720       -0.35870       -1.63770
H         -1.37630       -1.34090       -1.57550
H         -1.75530        1.38950       -0.16450
H         -0.60210        2.36320       -1.89200
H         -1.14260        0.95060       -2.87770
H          1.49280        2.44060       -0.01610
H          2.88940        1.66820       -0.83790
H          1.76530        0.96900        1.95820
H          3.31460        1.79950        1.58760
H          4.20530       -0.21520        0.46860
H          3.63570       -0.63860        2.12090
H          1.52840       -1.57140        1.22500
H          2.93080       -2.33090        0.39780
H          1.11330       -1.70840       -1.21530
H          2.65760       -0.86550       -1.56730
