26

N          2.29310        1.30480       -0.32070
C          2.52350       -0.05730        0.15830
C          1.20210       -0.83770        0.32110
C          0.30480       -0.20030        1.41190
C         -1.13760       -0.70750        1.30510
C         -1.78560       -0.34650       -0.05830
C         -2.68060        0.85620        0.07430
O         -3.91140        0.75800       -0.17840
O         -2.15320        2.07890        0.48110
C         -0.74600       -0.11200       -1.18100
C          0.46040       -1.04670       -1.02960
H          2.10950        1.26780       -1.34930
H          3.18490        1.83820       -0.20470
H          3.19810       -0.59700       -0.54380
H          3.03800       -0.01620        1.14420
H          1.48540       -1.85050        0.68750
H          0.29740        0.90790        1.32350
H          0.70940       -0.45120        2.41660
H         -1.73520       -0.30500        2.15290
H         -1.12780       -1.81410        1.42230
H         -2.41650       -1.21280       -0.36210
H         -2.74590        2.89480        0.57570
H         -0.38330        0.93920       -1.17030
H         -1.22460       -0.28640       -2.16930
H          1.14740       -0.90890       -1.89260
H          0.09390       -2.09590       -1.08520
