47

O          0.83320       -1.42080       -1.32580
C          1.06330       -0.41840       -0.59380
C          2.39160       -0.33630        0.13430
C          2.88290       -1.73030        0.57910
C          4.24050       -1.63220        1.28690
C          5.28030       -0.95330        0.38680
C          4.79820        0.43030       -0.06640
C          3.43810        0.33850       -0.77080
N          0.10120        0.66090       -0.54610
C          0.13450        1.65800        0.53420
C         -1.11930        2.49050        0.59650
O         -1.13780        3.49510        1.35800
N         -2.29920        2.13040       -0.15390
C         -3.61770        2.42640        0.40140
C         -4.05550        1.24990        1.27810
C         -3.70390       -0.09830        0.67620
C         -4.23720       -1.24950        1.27710
C         -3.97380       -2.51290        0.74850
C         -3.18430       -2.64160       -0.39250
C         -2.63350       -1.51040       -0.99740
C         -2.84140       -0.22830       -0.44890
C         -2.26490        1.01950       -1.11210
C         -0.83720        0.85770       -1.65610
H          2.28140        0.27510        1.05340
H          2.14310       -2.18030        1.27660
H          2.98420       -2.40550       -0.29960
H          4.12990       -1.05580        2.23180
H          4.59270       -2.65320        1.54840
H          6.23420       -0.84420        0.94620
H          5.47640       -1.59040       -0.50370
H          5.54390        0.86770       -0.76470
H          4.71780        1.10480        0.81440
H          3.09970        1.36510       -1.03200
H          3.55160       -0.23630       -1.71700
H          0.23150        1.14420        1.51410
H          1.00930        2.32620        0.38370
H         -4.34740        2.56460       -0.42680
H         -3.61010        3.36650        0.99380
H         -3.56290        1.33150        2.27110
H         -5.15450        1.31550        1.43230
H         -4.87100       -1.16550        2.15160
H         -4.39690       -3.39320        1.21490
H         -3.00340       -3.62180       -0.81470
H         -2.05370       -1.65090       -1.89710
H         -2.92180        1.27130       -1.97390
H         -0.77770        0.05040       -2.41230
H         -0.55450        1.78890       -2.19440
