29

C         -1.57640       -2.78850        0.53160
C         -1.31020       -1.65620        1.52110
N         -1.08220       -0.38660        0.81510
N         -2.10870        0.46700        0.77610
C         -2.06080        1.67390        0.15630
C         -3.27300        2.53160        0.18240
O         -3.27630        3.66110       -0.37500
O         -4.43390        2.10450        0.82530
C         -0.87230        2.06030       -0.48370
O         -0.79320        3.17390       -1.07310
C          0.23110        1.19450       -0.46010
C          1.44880        1.55290       -1.08940
C          2.50820        0.65900       -1.02570
C          2.40810       -0.52850       -0.38580
C          1.23950       -0.93220        0.24770
C          0.11410       -0.06230        0.21430
O          3.60870       -1.20590       -0.48140
C          4.51960       -0.38980       -1.23010
O          3.77630        0.79190       -1.55790
H         -2.47540       -2.55400       -0.07700
H         -1.75760       -3.73270        1.08680
H         -0.71310       -2.93740       -0.14840
H         -2.20270       -1.56500        2.17960
H         -0.46050       -1.89840        2.19340
H         -4.49340        1.20710        1.29070
H          1.57270        2.49440       -1.60970
H          1.22880       -1.89200        0.74160
H          5.40090       -0.12780       -0.60800
H          4.83300       -0.91470       -2.15680
