94

C         -5.50490        1.72380        3.55780
C         -4.90300        1.74200        2.14970
C         -4.70920        3.18820        1.66820
C         -4.37220        3.21090        0.19810
C         -3.20310        3.59410       -0.33260
C         -2.08100        4.17080        0.43760
C         -0.81410        4.14870        0.00670
C         -0.36300        3.45010       -1.21280
C         -0.29700        2.11710       -1.31870
C         -0.75990        1.19830       -0.26340
C         -0.00430        0.21200        0.23040
C          1.45340        0.01260       -0.12230
O          2.15660        1.19410        0.23140
C          3.25400        1.42630       -0.63530
O          2.77010        2.00040       -1.84040
C          3.80270        2.26440       -2.77980
C          4.38420        0.98050       -3.39730
C          4.88120        3.21750       -2.21060
O          4.33130        4.50170       -2.04770
C          5.40760        2.71140       -0.85310
N          6.27510        3.72100       -0.23940
C          4.22330        2.38360        0.07560
O          4.68910        1.76810        1.25050
C          2.03880       -1.18080        0.67390
C          1.83230       -2.54730       -0.02550
O          0.48030       -2.67370       -0.47220
C         -0.31670       -3.65650        0.19200
O         -0.05640       -4.94610       -0.31600
C         -1.80760       -3.31110       -0.05290
C         -2.21940       -3.37270       -1.54130
O         -2.21900       -4.71200       -1.96630
C         -3.62760       -2.79200       -1.75660
C         -3.63450       -1.25870       -1.65970
O         -4.95620       -0.77810       -1.76210
C         -4.30480       -0.54450       -0.53620
C         -4.93380       -1.34080        0.57480
C         -4.51840       -1.26090        1.84330
C         -3.48370       -0.31410        2.29360
O         -2.43920       -0.76460        2.83090
O         -3.63670        1.07320        2.15950
C         -0.05510       -3.66380        1.71560
C          1.41900       -3.97770        2.05560
O          1.54640       -5.31530        2.46770
C          2.34770       -3.73510        0.84080
C          3.80240       -3.57020        1.22260
O          4.16450       -3.55130        2.43050
O          4.75940       -3.44710        0.21950
H         -5.66700        0.67660        3.88900
H         -6.48600        2.24480        3.56530
H         -4.82140        2.22360        4.27700
H         -5.61070        1.22980        1.46180
H         -3.94080        3.67470        2.29940
H         -5.65370        3.75860        1.80210
H         -5.12470        2.82360       -0.47890
H         -3.07660        3.46370       -1.40080
H         -2.28110        4.70440        1.35610
H         -0.06870        4.69730        0.56850
H          0.09230        4.04800       -1.99200
H          0.17600        1.69290       -2.19520
H         -1.75150        1.33100        0.14380
H         -0.45270       -0.41960        0.98620
H          1.50850       -0.20060       -1.21750
H          3.79560        0.47280       -0.83730
H          3.32020        2.79870       -3.62750
H          5.05610        0.44470       -2.69750
H          3.55860        0.29980       -3.69460
H          4.97200        1.23420       -4.30510
H          5.73960        3.27040       -2.92190
H          4.31040        4.92330       -2.94640
H          6.00300        1.78460       -1.02030
H          6.73220        3.29960        0.60150
H          7.05420        3.93450       -0.90430
H          3.66930        3.32290        0.31970
H          4.83710        2.48730        1.91860
H          1.62050       -1.19470        1.70280
H          3.13070       -1.02300        0.80110
H          2.46000       -2.52800       -0.94400
H          0.24790       -4.85150       -1.25630
H         -1.99390       -2.28610        0.33330
H         -2.45590       -4.00620        0.52610
H         -1.48910       -2.78410       -2.14590
H         -2.12560       -4.70230       -2.95490
H         -4.34410       -3.27640       -1.06150
H         -3.96160       -3.05170       -2.78460
H         -2.95530       -0.67060       -2.31260
H         -4.09760        0.53370       -0.41040
H         -5.73810       -2.02810        0.34080
H         -4.93740       -1.94210        2.57290
H         -0.31430       -2.66460        2.12930
H         -0.72600       -4.39880        2.21350
H          1.72010       -3.30340        2.89240
H          1.20860       -5.36350        3.40030
H          2.32250       -4.64240        0.19920
H          5.73990       -3.33430        0.44720
