12

C          0.98410       -0.68870        0.45960
C          0.06790        0.44500       -0.00760
C         -1.37550       -0.04130       -0.12410
O          0.49460        0.92070       -1.25680
H          0.65040       -1.07100        1.44790
H          2.02470       -0.31470        0.56270
H          0.97590       -1.52260       -0.27480
H          0.09730        1.26820        0.74370
H         -2.02770        0.79510       -0.45400
H         -1.45000       -0.86530       -0.86590
H         -1.74080       -0.40410        0.86050
H          1.29920        1.47870       -1.09120
