140

C         -4.83360        2.75430        2.35770
C         -4.56970        2.94200        3.86380
C         -3.15280        3.39620        4.17720
C         -1.99720        2.75680        3.92940
C         -1.84920        1.49980        3.16550
C         -0.80420        0.66850        3.28950
C          0.33130        0.84350        4.26630
C          1.59680        1.36480        3.57820
C          1.41570        2.77600        3.07810
C          1.37080        3.15670        1.79230
C          1.43340        2.23110        0.63530
C          1.63480        2.62860       -0.62800
C          1.72410        4.04110       -1.05440
C          2.41710        4.44910       -2.12770
C          3.35940        3.61810       -2.90670
C          4.24580        2.79640       -2.32900
C          5.29150        2.05280       -3.12030
O          6.01610        2.98920       -3.90350
C          7.39830        2.67660       -3.95130
O          7.98300        3.07000       -2.71140
C          9.40160        3.10290       -2.74540
C         10.00160        1.69530       -2.93770
C          9.92940        4.18680       -3.73640
O         11.06360        3.73300       -4.43540
C          8.83110        4.62010       -4.73310
N          9.42090        5.31080       -5.88430
C          8.03790        3.38570       -5.18380
O          7.05510        3.75990       -6.11710
C          4.66190        0.98750       -4.04510
C          3.85810       -0.09280       -3.27770
O          4.62590       -0.69760       -2.26340
C          3.24300       -1.15030       -4.23740
C          4.29280       -2.02780       -4.88400
O          4.47640       -1.96440       -6.12940
O          5.05550       -2.91020       -4.12460
C          2.11230       -1.96580       -3.54710
O          2.55450       -2.55790       -2.34950
C          1.46600       -3.00600       -4.49410
C          0.12460       -3.48370       -3.99120
O         -0.88180       -3.18560       -4.61620
C          0.01070       -4.38070       -2.77880
C         -0.76230       -3.74460       -1.59400
O         -0.30290       -2.43630       -1.35100
C         -2.31710       -3.78510       -1.76120
O         -2.94710       -2.78770       -0.99330
C         -2.93560       -5.17980       -1.47170
C         -3.04930       -5.54360        0.02640
C         -4.41210       -5.13660        0.63210
O         -5.44120       -5.95270        0.12820
C         -4.36930       -5.18490        2.17580
C         -5.70670       -4.80190        2.85220
O         -5.59580       -4.98210        4.24270
C         -6.14390       -3.35570        2.51610
C         -7.34600       -2.87220        3.35520
O         -8.42260       -3.77420        3.26950
C         -7.78490       -1.46400        2.90640
C         -8.72600       -0.84070        3.90390
O         -9.96330       -0.87610        3.67360
O         -8.28300       -0.24460        5.09500
C         -6.92620        0.10460        5.38770
C         -6.76100        0.17150        6.91050
C         -6.54300        1.43590        4.66570
C         -7.39670        2.61610        5.17440
C         -5.01190        1.73670        4.74460
O         -4.29020        0.59150        4.36230
H         -4.16890        3.40750        1.75280
H         -4.70400        1.70070        2.03920
H         -5.88260        3.03570        2.12400
H         -5.19220        3.80930        4.16880
H         -3.07070        4.33690        4.71110
H         -1.10070        3.23400        4.30000
H         -2.59890        1.22880        2.44250
H         -0.76830       -0.20120        2.64410
H          0.55980       -0.15450        4.69780
H          0.05640        1.49110        5.12500
H          1.91620        0.65480        2.79140
H          2.42000        1.37730        4.32410
H          1.33710        3.54980        3.83270
H          1.28540        4.21890        1.61100
H          1.34250        1.16660        0.79320
H          1.72730        1.86250       -1.38670
H          1.11990        4.77810       -0.54210
H          2.28450        5.47220       -2.45680
H          3.41810        3.79600       -3.97340
H          4.26610        2.69630       -1.25040
H          5.94040        1.53660       -2.37230
H          7.53570        1.57890       -4.09860
H          9.72730        3.41980       -1.73030
H          9.89870        1.34840       -3.98650
H          9.48780        0.97290       -2.26850
H         11.08060        1.70080       -2.67430
H         10.20400        5.09840       -3.15280
H         11.83530        3.81930       -3.81650
H          8.13240        5.31790       -4.21370
H          8.64870        5.71360       -6.46330
H          9.96440        6.13170       -5.53010
H          8.75310        2.68560       -5.67770
H          6.74180        2.92330       -6.55080
H          5.47190        0.49500       -4.62450
H          3.99620        1.48840       -4.78170
H          3.01150        0.42740       -2.78350
H          5.51760       -0.91640       -2.63900
H          2.74440       -0.58030       -5.05510
H          5.75620       -3.49860       -4.55890
H          1.32090       -1.23190       -3.27860
H          3.14690       -3.31750       -2.58200
H          2.13690       -3.88050       -4.63550
H          1.32340       -2.54060       -5.49470
H          1.02790       -4.65250       -2.42650
H         -0.46510       -5.33300       -3.08930
H         -0.50140       -4.33900       -0.69370
H         -0.70480       -1.84100       -2.03620
H         -2.55230       -3.55220       -2.81930
H         -2.57240       -2.82420       -0.07490
H         -3.94040       -5.22980       -1.94570
H         -2.33050       -5.96120       -1.97590
H         -2.92260       -6.64280        0.13900
H         -2.22200       -5.07710        0.60070
H         -4.62600       -4.09400        0.32730
H         -5.26900       -6.88010        0.43880
H         -3.57190       -4.49840        2.53740
H         -4.09160       -6.21270        2.49840
H         -6.49360       -5.49770        2.48910
H         -4.91020       -4.34370        4.57330
H         -5.28790       -2.66530        2.68580
H         -6.42320       -3.29740        1.44230
H         -7.02530       -2.82540        4.41780
H         -8.67340       -3.85370        2.31180
H         -6.90120       -0.81120        2.75950
H         -8.28800       -1.53170        1.91670
H         -6.26270       -0.71310        5.03980
H         -5.71250        0.40250        7.18840
H         -7.43790        0.93100        7.35380
H         -7.01860       -0.81480        7.35140
H         -6.80150        1.30210        3.59540
H         -8.45720        2.31230        5.30030
H         -7.39110        3.44760        4.44000
H         -7.01570        2.99320        6.14700
H         -4.77070        2.00960        5.80060
H         -3.92490        0.17610        5.18690
