43

C          0.81230        2.73450       -0.71520
C          0.14120        1.38250       -0.62930
C         -1.21680        1.33280       -0.29410
C         -1.92480        0.11710       -0.17760
C         -3.39000        0.12270        0.35800
C         -3.66060       -1.08870        1.29370
C         -3.69310        1.38710        1.21390
C         -4.38100        0.12320       -0.82380
C         -1.23770       -1.06980       -0.57080
O         -1.90280       -2.28220       -0.76650
C          0.15620       -1.05170       -0.81260
C          0.86790       -2.35670       -1.10990
C          0.85310        0.18410       -0.86690
C          2.34650        0.23730       -1.16570
C          3.15600        0.47010        0.11250
N          3.00230       -0.64800        1.04260
C          4.33830       -1.15510        1.29160
C          5.29620       -0.10520        0.78930
N          4.56760        0.65290       -0.21200
H          0.11710        3.56310       -0.46250
H          1.17700        2.91210       -1.74810
H          1.66220        2.78740       -0.00430
H         -1.71170        2.27360       -0.11800
H         -2.80650       -1.24050        1.98840
H         -3.85700       -2.02940        0.75090
H         -4.57310       -0.93380        1.90900
H         -4.68290        1.31100        1.71440
H         -2.92050        1.52200        2.00180
H         -3.75250        2.30550        0.59250
H         -4.22030        1.02040       -1.46000
H         -5.42900        0.14200       -0.45340
H         -4.26970       -0.76630       -1.47030
H         -2.85310       -2.35010       -1.09390
H          1.08590       -2.42340       -2.19640
H          0.27320       -3.24610       -0.81780
H          1.81280       -2.42960       -0.53500
H          2.71470       -0.67270       -1.68030
H          2.55540        1.06030       -1.88010
H          4.47680       -2.10330        0.72860
H          4.48020       -1.34290        2.37710
H          5.60750        0.55580        1.63090
H          6.19610       -0.57150        0.33480
H          4.78640        1.66940       -0.09550
