20

C         -3.74180        0.47340        0.46090
C         -2.28550        0.25370        0.71730
O         -1.85340        0.34060        1.89820
N         -1.40270       -0.09290       -0.36210
C          0.03150       -0.10930       -0.25590
C          0.72030        0.82270        0.54230
C          2.11700        0.79960        0.60850
C          2.84170       -0.14130       -0.12940
O          4.23250       -0.15330       -0.05220
C          2.16300       -1.05830       -0.94240
C          0.76670       -1.03640       -1.01100
H         -4.02540        1.49620        0.78590
H         -4.33640       -0.26900        1.03320
H         -3.97610        0.36520       -0.61870
H         -1.83040       -0.43820       -1.25110
H          0.18500        1.58400        1.09350
H          2.63720        1.51990        1.22700
H          4.78600       -0.82140       -0.57590
H          2.71570       -1.78600       -1.52280
H          0.25510       -1.74930       -1.64540
