47

C         -2.37170        3.03870        2.72520
O         -1.81310        2.29690        1.64820
C         -2.21690        2.46770        0.31950
O         -3.09360        3.33150        0.04150
C         -1.57550        1.64490       -0.74830
C         -2.07360        1.53490       -2.00190
C         -3.31810        2.15050       -2.40240
N         -4.31480        2.64080       -2.72770
N         -1.36530        0.77240       -2.98680
C         -0.02720        0.30100       -2.76960
C          0.71540       -0.28150       -3.94420
C          0.52160        0.40630       -1.53570
C          1.93080        0.03120       -1.23430
O          2.81990        0.06540       -2.12840
O          2.27110       -0.32570        0.07580
C          3.59470       -0.65010        0.49680
C          4.42860        0.62520        0.64360
C          3.51520       -1.39370        1.82850
C         -0.34560        0.83630       -0.36100
C         -0.75290       -0.37610        0.45780
C         -0.31480       -0.50880        1.78640
C         -0.67270       -1.62680        2.54010
C         -1.47350       -2.62450        1.98150
C         -1.92720       -2.51450        0.65500
N         -2.75280       -3.54090        0.07440
O         -3.08110       -4.54590        0.73870
O         -3.19500       -3.43210       -1.22430
C         -1.56070       -1.38570       -0.09930
H         -3.46330        2.84620        2.79320
H         -1.89070        2.72170        3.67320
H         -2.18990        4.12380        2.57400
H         -1.80400        0.64290       -3.92690
H          1.19380       -1.24380       -3.66400
H          0.02130       -0.49190       -4.78430
H          1.48040        0.43830       -4.30310
H          4.07400       -1.32290       -0.24880
H          4.51600        1.14100       -0.33520
H          5.45200        0.37710        0.99750
H          3.95070        1.31810        1.36900
H          4.53160       -1.68290        2.17120
H          2.90850       -2.31600        1.70610
H          3.03630       -0.75530        2.60190
H          0.28760        1.50900        0.26100
H          0.30970        0.25120        2.23930
H         -0.32700       -1.72120        3.56150
H         -1.73760       -3.48210        2.58680
H         -1.90060       -1.29050       -1.12170
