26

O          0.91140       -1.77770        0.64310
C          0.89330       -0.51620        0.64440
N         -0.21200        0.17730        1.24870
C         -1.28670       -0.52230        1.95180
C         -2.25740       -1.16390        0.96200
O         -2.81580       -0.17030        0.13930
N         -3.64890       -0.81730       -0.72550
O         -3.20600       -0.60620       -1.99890
O         -4.90040       -0.28730       -0.60440
C          2.00890        0.22330        0.00610
C          2.78010       -0.38950       -0.99620
C          3.83280        0.30330       -1.59610
C          4.11690        1.60500       -1.18440
N          3.37620        2.18450       -0.20400
C          2.34290        1.53350        0.39460
H         -0.27950        1.21660        1.17810
H         -0.85880       -1.29690        2.62450
H         -1.84450        0.20270        2.58380
H         -3.05870       -1.67770        1.54050
H         -1.71480       -1.91990        0.35030
H         -3.08110        0.37350       -2.11670
H         -4.81980        0.70020       -0.69200
H          2.56140       -1.39850       -1.32350
H          4.42280       -0.16480       -2.37350
H          4.93050        2.15350       -1.64000
H          1.80740        2.03510        1.18810
