26

C          2.06660       -1.60660        0.79570
C          2.09300       -0.09420        0.57900
C          1.06830        0.35770       -0.48430
C          1.14740        1.83720       -0.77650
N          0.36200        2.39470       -1.83010
O          1.89690        2.59220       -0.09920
N         -0.29780        0.00280       -0.07950
C         -1.13950       -0.93560       -0.80080
C         -2.46230       -1.02140       -0.01360
C         -2.36680       -0.03450        1.16050
C         -1.00820        0.52450        1.02960
O         -0.53140        1.38800        1.81310
H          2.24540       -2.13840       -0.16290
H          1.08830       -1.92300        1.21520
H          2.86380       -1.89220        1.51380
H          1.89910        0.41290        1.54840
H          3.11500        0.18970        0.24440
H          1.31600       -0.17100       -1.43180
H          0.40510        3.41750       -2.03550
H         -0.26220        1.78850       -2.40710
H         -1.32260       -0.56110       -1.83100
H         -0.64540       -1.93010       -0.84720
H         -3.32010       -0.75830       -0.67030
H         -2.61150       -2.05480        0.36890
H         -2.47560       -0.55790        2.13460
H         -3.12350        0.77360        1.06650
