26

O         -3.20480       -1.59360        0.36430
N         -1.95040       -1.96340        0.73590
O         -1.63160       -1.30480        1.87980
O         -1.04380       -1.63550       -0.24520
C         -1.16970       -0.27340       -0.63460
C          0.15730        0.21240       -1.25290
C          1.28620        0.33330       -0.20890
O          1.63420       -0.94350        0.26730
N          2.57610       -0.74710        1.22960
O          2.09240       -1.27990        2.38010
O          3.68660       -1.45360        0.87810
O         -0.01090        1.41250       -1.98740
N         -0.40300        2.39010       -1.12130
O         -1.57410        2.89350       -1.58660
O          0.52490        3.38680       -1.16710
H         -3.68800       -2.44820        0.23120
H         -1.19710       -1.98860        2.45000
H         -1.96480       -0.19500       -1.40810
H         -1.44210        0.39530        0.21270
H          0.47600       -0.55850       -1.98890
H          0.94890        0.98360        0.63160
H          2.17020        0.80400       -0.69680
H          1.93220       -0.49950        2.96920
H          3.41430       -2.40550        0.77710
H         -2.20850        2.78840       -0.83290
H          0.58930        3.69020       -2.11270
