61

C         -3.50310        3.10600       -0.19500
C         -3.60550        1.74820        0.50140
C         -2.70580        0.68870       -0.11490
O         -2.10020        0.96740       -1.13880
C         -2.51630       -0.71400        0.51790
C         -3.57210       -0.93450        1.64140
C         -2.67740       -1.82220       -0.56100
C         -3.81770       -1.61300       -1.57500
C         -1.30570       -1.97460       -1.23090
C         -0.24310       -1.39740       -0.26080
C          0.69380       -0.35080       -0.98090
C          1.74100       -1.11720       -1.84260
C          3.07100       -1.35320       -1.13080
C          3.64070       -0.10040       -0.51640
C          4.89230       -0.15370       -0.03140
C          5.45280        0.96440        0.73020
O          6.65230        0.93550        1.11140
C          4.59150        2.08880        1.09140
C          3.34340        2.15330        0.62640
C          2.79060        1.17320       -0.41030
C          2.84870        1.95580       -1.74610
C          1.30700        0.77580       -0.05910
C          1.09850        0.46890        1.44510
O          1.83360       -0.66430        1.82850
C         -0.39820        0.29850        1.73210
C         -1.02730       -0.94200        1.02030
C         -0.95810       -2.12640        2.04620
H         -4.16800        3.83560        0.31360
H         -3.81910        3.02080       -1.25670
H         -2.45970        3.48500       -0.14780
H         -3.32790        1.89120        1.56690
H         -4.66210        1.41240        0.44920
H         -4.59740       -0.72750        1.27190
H         -3.59190       -1.98410        2.00120
H         -3.36160       -0.27700        2.51100
H         -2.89690       -2.79040       -0.05760
H         -4.78070       -1.46110       -1.04500
H         -3.91440       -2.51540       -2.21540
H         -3.63070       -0.74380       -2.23820
H         -1.29570       -1.45780       -2.21490
H         -1.10160       -3.04990       -1.43180
H          0.42560       -2.24180        0.02620
H          0.08520        0.19870       -1.72740
H          1.92590       -0.59750       -2.80240
H          1.34070       -2.10470       -2.16090
H          2.93200       -2.11480       -0.33320
H          3.79110       -1.76350       -1.87280
H          5.48580       -1.05400       -0.14410
H          4.96100        2.86050        1.75530
H          2.74000        3.01060        0.90290
H          2.37130        2.95450       -1.63540
H          3.90450        2.11460       -2.05690
H          2.31870        1.46160       -2.57510
H          0.70330        1.69590       -0.24510
H          1.42680        1.34210        2.05310
H          1.89490       -0.64580        2.81920
H         -0.89160        1.24760        1.44950
H         -0.54550        0.24270        2.83350
H          0.08950       -2.36820        2.31720
H         -1.47710       -1.88080        2.99660
H         -1.40120       -3.05650        1.63520
