30

N          5.69910       -0.10080        0.80830
C          4.30760       -0.23170        0.52800
N          3.83300       -1.37300       -0.04180
C          2.51100       -1.52970       -0.32240
N          2.05770       -2.74670       -0.92080
C          1.62010       -0.49190       -0.01680
N          0.28790       -0.58850       -0.26320
C         -0.57130        0.42260        0.04330
C         -2.01210        0.21960       -0.21450
C         -2.43840       -0.24610       -1.46930
C         -3.79620       -0.47690       -1.71190
C         -4.73540       -0.26000       -0.70010
C         -4.31770        0.18150        0.55820
C         -2.96100        0.41350        0.80490
C         -0.05170        1.61270        0.60900
N         -0.87570        2.75360        0.86900
N          1.28340        1.69700        0.86120
C          2.12760        0.67590        0.56940
N          3.45520        0.78460        0.82890
H          6.35960       -0.87650        0.57970
H          6.07070        0.77190        1.24490
H          1.05100       -2.90070       -1.15090
H          2.73930       -3.50710       -1.13900
H         -1.72100       -0.42190       -2.26170
H         -4.11980       -0.82670       -2.68370
H         -5.78570       -0.44070       -0.88900
H         -5.04460        0.33770        1.34480
H         -2.65000        0.73440        1.79150
H         -1.85570        2.82230        0.51840
H         -0.46680        3.59170        1.33880
