57

C         -3.43050       -0.97410        2.22770
N         -2.76460       -1.77470        1.18410
C         -3.47610       -3.04670        0.97460
C         -2.50150       -1.04620       -0.09050
C         -3.69990       -0.21500       -0.55780
O         -4.76520       -0.78070       -0.75500
C         -3.62050        1.26990       -0.85390
C         -4.39410        2.03300        0.19110
N         -5.66750        2.59880       -0.12120
O         -3.92640        2.16450        1.35420
C         -2.20060        1.77700       -0.96430
O         -1.99060        2.98190       -0.92250
C         -1.06020        0.78620       -1.15500
O         -1.23480        0.09450       -2.37140
C          0.30940        1.46810       -1.18560
O          0.50270        2.55850       -2.04160
C          1.36940        1.01240       -0.47980
C          2.59090        1.81540       -0.39510
O          2.50850        3.06160       -0.22180
C          3.89080        1.12980       -0.40970
C          5.08450        1.78970       -0.81730
O          5.10530        3.09650       -1.31190
C          6.30290        1.11010       -0.77490
C          6.35040       -0.23280       -0.42510
C          5.18120       -0.90770       -0.09020
C          3.93800       -0.23920       -0.04000
C          2.69310       -1.04800        0.37300
C          2.95580       -1.59210        1.80940
O          2.60100       -2.11460       -0.54910
C          1.33040       -0.22810        0.38760
C          0.08230       -1.10430        0.07430
O         -0.06090       -2.08040        1.07530
C         -1.18140       -0.21560        0.02020
H         -3.42530       -1.53160        3.18860
H         -4.48530       -0.74930        1.95870
H         -2.88650       -0.02630        2.40670
H         -4.51270       -2.87920        0.61410
H         -3.51980       -3.61810        1.92660
H         -2.93080       -3.68110        0.24350
H         -2.32240       -1.78750       -0.90290
H         -4.09280        1.43990       -1.84600
H         -6.20150        3.12450        0.60580
H         -6.08450        2.48980       -1.07210
H         -1.29690        0.76400       -3.10250
H         -0.21180        2.87770       -2.68400
H          4.28490        3.59720       -1.62170
H          7.21480        1.61610       -1.06680
H          7.29550       -0.76070       -0.43620
H          5.25150       -1.96410        0.13290
H          3.20260       -0.75640        2.49970
H          2.07440       -2.12170        2.21940
H          3.79330       -2.31910        1.82530
H          2.15640       -2.88750       -0.11320
H          1.18390        0.17060        1.41810
H          0.21370       -1.58330       -0.92630
H         -0.30930       -2.93110        0.62760
H         -1.21320        0.36940        0.96700
