37

C         -3.08920       -1.69080        0.51520
C         -3.19760       -0.37540       -0.28740
C         -2.99030       -0.65590       -1.79340
C         -4.62230        0.18330       -0.08660
N         -2.23430        0.63190        0.22620
C         -0.81450        0.33250       -0.03050
C          0.08080        1.24690        0.82950
O         -0.15140        2.59940        0.52370
C          1.55530        0.92950        0.69460
C          2.48590        1.57630        1.51830
C          3.84370        1.28800        1.38020
C          4.26940        0.35540        0.42740
O          5.62660        0.07400        0.27350
C          3.31130       -0.29050       -0.37220
C          3.72780       -1.27190       -1.43460
O          2.65060       -2.08270       -1.82120
N          1.99430        0.02520       -0.22570
H         -2.16350       -2.25010        0.26970
H         -3.09850       -1.47860        1.60590
H         -3.94140       -2.36520        0.28130
H         -2.02800       -1.17880       -1.97670
H         -2.99380        0.29440       -2.36910
H         -3.80180       -1.30710       -2.18460
H         -4.76160        1.12070       -0.66740
H         -4.79990        0.41090        0.98680
H         -5.39050       -0.54670       -0.42300
H         -2.44280        1.55620       -0.22180
H         -0.57900       -0.71780        0.23470
H         -0.57610        0.49020       -1.10630
H         -0.20110        1.08190        1.89260
H          0.11420        2.74030       -0.42320
H          2.16180        2.29990        2.25610
H          4.56470        1.79290        2.01050
H          6.33060        0.53130        0.84120
H          4.56780       -1.90760       -1.07310
H          4.08270       -0.70610       -2.32120
H          2.51000       -2.73630       -1.08680
