48

C         -2.47920        1.17270       -1.51440
C         -2.53990        0.78570       -0.01110
C         -1.83670        1.85380        0.87130
C         -0.37730        1.46560        1.25420
C          0.34610        0.56680        0.19240
C         -0.48760       -0.73210       -0.17620
C          0.13300       -2.03060        0.37830
C          1.58140       -2.23430       -0.08950
C          2.33620       -0.93270       -0.28630
C          3.30300       -0.86210       -1.23740
O          3.85800       -2.00810       -1.81760
C          3.79160        0.43750       -1.71760
O          4.75010        0.49190       -2.53380
C          3.09880        1.68690       -1.29980
C          2.73380        1.57210        0.17540
C          1.87270        0.30220        0.51220
C          2.11600        0.02020        2.02140
C         -1.94630       -0.59220        0.31410
C         -2.99580       -1.61150       -0.13570
C         -4.32940       -0.93000        0.20960
C         -3.97740        0.52220        0.30450
O         -4.79360        1.39690        0.55160
H         -3.07640        2.09350       -1.69060
H         -1.45480        1.38360       -1.86690
H         -2.89940        0.37220       -2.15900
H         -2.40910        2.00490        1.81310
H         -1.82810        2.83660        0.35050
H         -0.41270        0.92350        2.22330
H          0.19240        2.39990        1.43360
H          0.35340        1.17760       -0.72980
H         -0.50260       -0.83270       -1.28520
H         -0.46510       -2.89990        0.02690
H          0.06740       -2.05770        1.48320
H          1.51830       -2.77870       -1.05720
H          2.12650       -2.87600        0.63520
H          3.70420       -2.94470       -1.46560
H          2.19340        1.83460       -1.92430
H          3.76910        2.56200       -1.44560
H          2.21840        2.50340        0.48690
H          3.69260        1.54800        0.74330
H          1.43060       -0.73200        2.44470
H          1.99490        0.94670        2.62340
H          3.15380       -0.34500        2.18330
H         -1.91860       -0.69850        1.42740
H         -2.88940       -2.57510        0.40810
H         -2.92090       -1.79610       -1.22920
H         -5.08520       -1.10380       -0.58570
H         -4.71000       -1.28720        1.19060
