54

C         -4.58390       -2.07980        1.43470
O         -4.47760       -2.44590        0.08150
C         -3.38840       -1.73760       -0.45270
C         -2.29520       -2.68460       -0.85980
C         -1.08210       -2.25260       -1.22490
C         -0.71650       -0.81400       -1.31250
C         -1.53510        0.09690       -1.90920
C         -2.82010       -0.32030       -2.57940
C         -3.82160       -0.86210       -1.60150
O         -4.99770       -0.56150       -1.73380
C         -1.18270        1.57360       -1.96700
N         -0.90260        2.09470       -0.62090
C         -1.87340        2.06020        0.43420
C         -1.46280        2.38600        1.83250
O         -3.07590        1.77380        0.18750
C         -0.00300        1.84750       -2.93660
C          1.11770        0.78820       -2.94100
C          1.50160        0.35000       -1.54680
C          2.74390        0.71660       -1.02560
C          3.12580        0.34820        0.27470
O          4.38440        0.71540        0.77810
C          5.36830        1.46210        0.06860
C          2.22720       -0.39640        1.08320
O          2.54920       -0.80340        2.39210
C          3.74920       -0.53830        3.11030
C          0.95510       -0.75680        0.56170
O         -0.02550       -1.43330        1.31770
C         -0.00200       -1.70350        2.71440
C          0.61370       -0.41530       -0.76480
H         -4.78410       -0.98930        1.54190
H         -3.66790       -2.36400        2.00140
H         -5.43980       -2.62490        1.88290
H         -2.46920       -3.75150       -0.78780
H         -0.30230       -2.98700       -1.38490
H         -2.61590       -1.06580       -3.37730
H         -2.05550        2.13970       -2.36370
H          0.04510        2.47620       -0.39810
H         -2.27150        2.12470        2.54760
H         -1.24350        3.47100        1.91080
H         -0.55230        1.80800        2.09710
H          0.43690        2.84400       -2.71230
H         -0.40560        1.91120       -3.97130
H          0.79430       -0.10040       -3.52600
H          1.99330        1.21020       -3.48100
H          3.41280        1.29980       -1.64340
H          5.67710        0.91500       -0.84710
H          6.25780        1.59550        0.71760
H          4.97020        2.46430       -0.19650
H          3.88890        0.55580        3.23740
H          4.61760       -0.99800        2.59350
H          3.66910       -0.99390        4.11840
H          0.15190       -0.76420        3.28650
H         -0.98110       -2.13280        3.01010
H          0.78380       -2.45120        2.94930
