55

C         -2.11350        0.84780        1.99410
N         -1.71880       -0.13260        0.97400
C         -2.70370       -1.14090        0.54770
C         -3.89890       -0.49790       -0.10140
C         -3.76790        0.30220       -1.24810
N         -4.87190        0.86890       -1.80350
C         -6.10440        0.67360       -1.26860
N         -7.19830        1.24490       -1.83300
C         -8.43510        1.05370       -1.30050
N         -9.57320        1.66150       -1.90660
N         -8.58700        0.28280       -0.18900
C         -7.52240       -0.31160        0.41440
N         -7.73090       -1.11220        1.58070
C         -6.24120       -0.12510       -0.12200
N         -5.13640       -0.69070        0.43260
C         -0.35240       -0.16440        0.48980
C         -0.06450       -0.52050       -0.84160
C          1.25240       -0.54020       -1.30840
C          2.31710       -0.19480       -0.46110
C          3.71070       -0.22650       -0.96520
O          3.98860       -0.93080       -1.97450
N          4.74340        0.54420       -0.32960
C          6.16440        0.37260       -0.65230
C          7.02340        0.50260        0.62170
C          6.64880       -0.51900        1.70840
C          6.88340       -1.92970        1.26140
O          8.05040       -2.32400        0.99550
O          5.80950       -2.80640        1.14370
C          6.59940        1.38640       -1.67570
O          5.83080        2.32310       -2.02560
O          7.86670        1.28770       -2.24230
C          2.03690        0.15370        0.87010
C          0.72010        0.17330        1.33790
H         -1.82180        1.86840        1.66790
H         -1.63040        0.60930        2.96360
H         -3.21170        0.83830        2.16010
H         -3.02900       -1.71940        1.43970
H         -2.26120       -1.87900       -0.15240
H         -2.80030        0.48450       -1.69200
H        -10.52590        1.51940       -1.50350
H         -9.46470        2.25420       -2.75930
H         -6.93730       -1.58230        2.06990
H         -8.69450       -1.23740        1.96290
H         -0.85360       -0.77140       -1.53510
H          1.43620       -0.81320       -2.34030
H          4.47160        1.34810        0.28060
H          6.33300       -0.63610       -1.08860
H          8.09850        0.37800        0.36340
H          6.90110        1.52450        1.04400
H          5.58410       -0.39000        1.99910
H          7.26400       -0.32690        2.61340
H          5.95030       -3.76260        0.84050
H          8.18120        1.95920       -2.93240
H          2.83400        0.38860        1.56330
H          0.55080        0.43400        2.37280
