24

C         -3.38200       -0.80090        0.01130
C         -1.95490       -0.45020        0.43770
N         -1.97490        0.78410        1.22820
C         -1.03750       -0.31990       -0.79930
C          0.40400       -0.09710       -0.41430
C          1.02510        1.13860       -0.66240
C          2.36140        1.34090       -0.30400
C          3.09200        0.30980        0.30160
O          4.42370        0.50020        0.66310
C          2.47960       -0.92360        0.54530
C          1.14350       -1.12850        0.18850
H         -4.02980       -0.90340        0.90790
H         -3.80070       -0.00630       -0.64300
H         -3.39290       -1.76570       -0.53940
H         -1.58750       -1.28070        1.08090
H         -1.03510        0.92530        1.66450
H         -2.15810        1.60020        0.59940
H         -1.09750       -1.24740       -1.40990
H         -1.40190        0.51200       -1.44200
H          0.47450        1.94750       -1.12630
H          2.82750        2.29880       -0.49700
H          4.89570        1.38190        0.49970
H          3.04020       -1.72440        1.01060
H          0.68580       -2.09130        0.37900
