38

C         -4.82420       -0.02860       -1.24660
C         -4.47180        0.60180        0.10740
C         -5.71370        0.59100        1.01160
N         -3.36720       -0.14710        0.74060
C         -2.05460        0.32600        0.27580
C         -0.94110       -0.58960        0.81380
O         -1.15500       -1.92150        0.41530
C          0.44260       -0.10510        0.36070
O          1.44260       -0.95890        0.90290
C          2.83060       -0.84460        0.71690
C          3.64770       -1.80690        1.34310
C          5.04970       -1.77200        1.21200
C          5.66640       -0.77100        0.44960
C          4.85340        0.17660       -0.16610
N          5.26390        1.20170       -0.92920
C          4.14580        1.85210       -1.30870
C          3.01750        1.23710       -0.78380
C          3.47970        0.15500       -0.04650
H         -3.97380        0.05090       -1.95370
H         -5.08180       -1.10190       -1.11850
H         -5.68990        0.49710       -1.70350
H         -4.18830        1.66760       -0.05490
H         -6.03040       -0.45250        1.22560
H         -6.55320        1.13120        0.52380
H         -5.49170        1.10270        1.97230
H         -3.39230        0.00920        1.77660
H         -2.00970        0.32870       -0.83450
H         -1.87980        1.36660        0.63280
H         -0.96750       -0.55480        1.92510
H         -1.13670       -1.94510       -0.57750
H          0.49440       -0.12960       -0.74940
H          0.60000        0.92910        0.73600
H          3.19300       -2.58970        1.93700
H          5.65490       -2.52300        1.70290
H          6.74310       -0.73740        0.34410
H          6.24690        1.44930       -1.18030
H          4.14400        2.73290       -1.93720
H          2.00670        1.57280       -0.94610
