69

C          9.28360        1.20270        2.18530
C          9.62830        1.40030        0.70940
C          8.66020        0.66400       -0.22940
C          7.25240        1.28480       -0.22860
C          6.35730        0.71930       -1.34230
C          5.99710       -0.76020       -1.11890
C          4.92560       -1.25420       -2.11410
C          3.52060       -1.37370       -1.49880
C          2.92100       -0.01160       -1.11220
C          1.47700       -0.12850       -0.59660
C          0.45550       -0.28300       -1.73720
C         -0.98140       -0.46480       -1.22220
C         -1.56960        0.82670       -0.63370
C         -3.04560        0.63800       -0.26280
C         -3.62840        1.92170        0.34750
C         -5.13900        1.81730        0.60900
C         -5.47410        0.85220        1.75910
C         -6.95040        0.92690        2.18760
C         -7.96810        0.57330        1.08380
C         -7.77390       -0.80910        0.43510
C         -7.90840       -1.96330        1.43910
C         -7.85990       -3.31650        0.73110
O         -7.97100       -4.34250        1.67750
H         10.07690        1.65980        2.81360
H          8.32040        1.69510        2.43280
H          9.22000        0.12080        2.42840
H          9.64090        2.48620        0.47190
H         10.65340        1.00710        0.53530
H          8.60750       -0.40620        0.06490
H          9.07780        0.71320       -1.25870
H          6.76120        1.12040        0.75430
H          7.33990        2.38240       -0.38430
H          5.43030        1.32870       -1.37590
H          6.86290        0.83630       -2.32600
H          5.66300       -0.92160       -0.07050
H          6.91450       -1.37000       -1.26630
H          5.21910       -2.26850       -2.46390
H          4.88830       -0.61020       -3.02060
H          2.86960       -1.86840       -2.24900
H          3.56060       -2.03420       -0.60500
H          3.53320        0.42530       -0.29460
H          2.95950        0.68580       -1.97760
H          1.39560       -0.98280        0.11080
H          1.24760        0.79930       -0.03140
H          0.70910       -1.17870       -2.34120
H          0.50400        0.59980       -2.41180
H         -1.61320       -0.78710       -2.07910
H         -1.00920       -1.27540       -0.46120
H         -1.48080        1.64700       -1.37960
H         -1.00600        1.11370        0.27930
H         -3.62190        0.36750       -1.17500
H         -3.12730       -0.19440        0.46850
H         -3.09770        2.16660        1.29370
H         -3.46090        2.76380       -0.35950
H         -5.51410        2.83140        0.86870
H         -5.64980        1.49560       -0.32380
H         -4.85280        1.11450        2.64300
H         -5.21840       -0.19020        1.47960
H         -7.10460        0.25610        3.05940
H         -7.16690        1.95730        2.54490
H         -7.93210        1.34870        0.28920
H         -8.98890        0.62170        1.52170
H         -6.78970       -0.86020       -0.07680
H         -8.55310       -0.92420       -0.35000
H         -7.07770       -1.92140        2.17550
H         -8.87290       -1.87350        1.98520
H         -8.69970       -3.38800        0.00380
H         -6.89510       -3.41620        0.18430
H         -7.93180       -5.19280        1.16710
