42

C          3.13290        2.22260       -1.54710
N          3.53330        1.38580       -0.40410
C          4.94660        0.99640       -0.55600
C          2.66030        0.19500       -0.30970
C          2.62010       -0.33170        1.13090
C          1.62590       -1.44770        1.26740
C          1.91280       -2.79950        1.43240
N          0.76950       -3.51720        1.51750
C         -0.23530       -2.63000        1.41300
C         -1.60210       -2.89540        1.44760
C         -2.48770       -1.81000        1.32480
C         -1.99600       -0.48700        1.17780
C         -2.95010        0.67010        1.02810
C         -3.00200        1.17610       -0.42360
C         -3.66510        0.15890       -1.40100
O         -4.77280        0.84540       -1.97280
C         -4.85170        2.10980       -1.44090
O         -5.73450        2.94780       -1.76010
N         -3.83320        2.36960       -0.50510
C         -0.60270       -0.25680        1.14950
C          0.24720       -1.35630        1.26310
H          3.17650        1.64930       -2.50030
H          3.79480        3.11210       -1.62670
H          2.09920        2.60250       -1.39800
H          5.10640        0.40140       -1.48310
H          5.28560        0.40330        0.31770
H          5.59030        1.90160       -0.59590
H          2.99780       -0.61160       -1.00060
H          1.61880        0.45660       -0.60410
H          2.34530        0.48850        1.82850
H          3.62290       -0.70790        1.42210
H          2.90300       -3.23340        1.48200
H          0.68830       -4.55100        1.64070
H         -1.97270       -3.90560        1.56400
H         -3.55390       -1.99760        1.34480
H         -2.61120        1.49750        1.68940
H         -3.97130        0.38570        1.36550
H         -1.97790        1.43100       -0.77600
H         -2.95310       -0.13270       -2.20230
H         -4.03050       -0.75370       -0.88480
H         -3.67000        3.27400       -0.00890
H         -0.20390        0.74420        1.04270
