21

O          2.86710       -0.43300        0.11450
C          1.92860        0.40250        0.01890
O          1.84810        1.46110        0.91860
C          0.89750        0.25940       -1.06370
C         -0.38180       -0.52800       -0.64020
O         -1.34470       -0.43620       -1.66810
C         -1.02380        0.02930        0.66140
C         -1.53860        1.44330        0.58090
O         -1.58010        2.07110       -0.51130
O         -2.00070        2.05650        1.74080
C         -0.03660       -1.98910       -0.40900
O         -0.51400       -2.88630       -1.15590
O          0.79500       -2.35390        0.64670
H          2.53340        1.56890        1.65660
H          1.36770       -0.24570       -1.93650
H          0.62080        1.27510       -1.41430
H         -0.92270       -0.72790       -2.51930
H         -1.88400       -0.61650        0.94430
H         -0.29810       -0.02850        1.50040
H         -2.36030        3.00340        1.72050
H          1.02720       -3.32540        0.81450
