38

C          6.18930        0.92580        0.33090
C          5.29690       -0.25490        0.56740
O          5.75020       -1.38590        0.47420
C          3.85100       -0.05690        0.93140
C          2.93330       -0.57740       -0.18010
C          1.45870       -0.36140        0.17830
C          0.53780       -0.88140       -0.93050
N         -0.87570       -0.66060       -0.56640
C         -1.52050        0.48450       -0.97900
O         -0.92370        1.36340       -1.65960
C         -2.85170        0.65370       -0.62280
C         -3.48680       -0.27930        0.12180
N         -4.76870        0.07600        0.34340
C         -4.86810        1.26680       -0.30300
N         -3.71250        1.64660       -0.90170
C         -3.48250        2.86130       -1.67710
N         -2.86270       -1.40410        0.56510
C         -3.59150       -2.41140        1.34760
C         -1.54720       -1.59930        0.20220
O         -0.94840       -2.64720        0.57720
H          6.23290        1.55000        1.24780
H          5.78750        1.53340       -0.50670
H          7.21820        0.59530        0.07300
H          3.64990        1.02410        1.09880
H          3.64130       -0.59660        1.88040
H          3.16490       -0.04120       -1.12720
H          3.11800       -1.66370       -0.33380
H          1.22700       -0.89340        1.12680
H          1.26850        0.72400        0.32860
H          0.72870       -1.96280       -1.10850
H          0.78310       -0.37320       -1.88910
H         -5.78030        1.84880       -0.33400
H         -2.67570        3.46000       -1.20500
H         -3.18870        2.59380       -2.71380
H         -4.40600        3.47740       -1.71660
H         -3.93140       -3.22840        0.67700
H         -2.93980       -2.83600        2.14090
H         -4.47530       -1.96990        1.85540
