25

N          4.35680        0.39270       -1.32780
C          2.94890        0.17030       -1.38990
O          2.22140        0.96950       -2.03870
N          2.37170       -0.96010       -0.72280
C          0.93640       -1.23570       -0.73720
C          0.19850       -0.28560        0.21150
C         -1.30880       -0.58220        0.22730
C         -2.07140        0.32690        1.21660
N         -3.46870       -0.09200        1.34430
C         -2.01770        1.77510        0.80160
O         -1.46670        2.61960        1.55610
O         -2.56770        2.20170       -0.40530
H          4.97440       -0.25910       -0.79540
H          4.78350        1.21240       -1.81390
H          3.00570       -1.64570       -0.25390
H          0.54460       -1.13480       -1.77290
H          0.76700       -2.28430       -0.40780
H          0.61130       -0.40530        1.23720
H          0.36730        0.76280       -0.11440
H         -1.72240       -0.46470       -0.79810
H         -1.45860       -1.64170        0.53110
H         -1.59290        0.22910        2.21790
H         -3.49390       -1.03880        1.78860
H         -3.89650       -0.18730        0.39430
H         -3.02240        1.55750       -1.04020
