57

C         -7.81650       -0.05630        2.31660
O         -7.45330       -0.03350        0.94010
C         -6.13270        0.02900        0.46870
C         -5.02610        0.07600        1.34890
C         -3.73890        0.13710        0.81560
C         -3.54000        0.14950       -0.53650
C         -4.60210        0.10720       -1.43760
C         -5.91990        0.04490       -0.92920
O         -7.03980       -0.00210       -1.77400
C         -6.97580        0.00690       -3.19640
C         -2.12620        0.22480       -0.80540
O         -1.63200        0.31000       -1.96020
C         -1.34310        0.25940        0.47920
C         -0.32730       -0.91110        0.58880
C          1.12220       -0.50740        0.22390
C          2.10900       -1.62420        0.60870
C          3.57140       -1.21790        0.31810
N          3.67000       -0.06060       -0.60550
C          5.05670        0.11970       -1.08310
C          5.94950        0.59230        0.03540
C          7.03520       -0.18990        0.46400
C          7.85370        0.25420        1.50730
C          7.59560        1.47980        2.12770
C          6.51850        2.26390        1.70550
C          5.69760        1.82370        0.66270
C          2.74970       -0.23280       -1.74520
C          1.28330       -0.16690       -1.27480
C         -2.45260        0.18900        1.57560
H         -8.92150       -0.10730        2.39920
H         -7.46450        0.86900        2.81970
H         -7.38110       -0.94990        2.81160
H         -5.15430        0.06540        2.42260
H         -4.40260        0.12280       -2.50040
H         -8.00570       -0.03840       -3.60580
H         -6.49300        0.94190       -3.55100
H         -6.41000       -0.87730       -3.55880
H         -0.82580        1.24100        0.55940
H         -0.65510       -1.77790       -0.02770
H         -0.30250       -1.26810        1.64130
H          1.39190        0.39240        0.82300
H          2.00740       -1.87170        1.68840
H          1.86210       -2.54270        0.03050
H          4.11260       -2.10240       -0.08880
H          4.05310       -0.94600        1.28270
H          5.44140       -0.82200       -1.53740
H          5.09220        0.89770       -1.87770
H          7.24550       -1.14340       -0.00420
H          8.68770       -0.35240        1.83570
H          8.22990        1.82160        2.93530
H          6.31930        3.21280        2.18660
H          4.86480        2.43900        0.34490
H          2.94040       -1.20880       -2.24870
H          2.90570        0.56930       -2.50080
H          0.69040       -0.87340       -1.89550
H          0.89350        0.85950       -1.44930
H         -2.42920        1.09840        2.21410
H         -2.37840       -0.71360        2.21910
