27

C         -2.84510        1.33260       -0.76020
N         -1.67810        0.99340        0.06170
C         -1.55070       -0.46360        0.27730
C         -1.22590       -1.19320       -1.04060
C         -0.47210       -0.77920        1.34970
O         -0.84020       -0.21060        2.58090
C          0.91370       -0.30570        0.94350
C          1.87100       -1.23470        0.49670
C          3.14810       -0.80930        0.11880
C          3.48500        0.54440        0.18910
C          2.54630        1.47500        0.64050
C          1.26760        1.05480        1.01880
H         -3.76410        0.83030       -0.38590
H         -3.01220        2.43050       -0.72860
H         -2.66500        1.05900       -1.82020
H         -1.83960        1.44870        0.99030
H         -2.51470       -0.87040        0.66170
H         -0.96670       -2.25570       -0.84580
H         -0.37380       -0.70380       -1.55880
H         -2.10670       -1.19100       -1.71540
H         -0.45870       -1.88800        1.47680
H         -0.26730       -0.63070        3.27510
H          1.62680       -2.28770        0.43150
H          3.87690       -1.52990       -0.22910
H          4.47430        0.87180       -0.10330
H          2.81050        2.52290        0.70060
H          0.56080        1.79010        1.37960
