14

N         -0.51090       -1.39530        1.33670
C         -0.07530       -0.12000        0.75920
C         -0.97900        0.27830       -0.42420
O         -0.67260        1.56950       -0.87860
C          1.36830       -0.19750        0.33230
O          1.99330       -1.29250        0.36340
O          2.02460        0.95560       -0.08810
H         -0.59320       -2.11180        0.57790
H         -1.46450       -1.26810        1.74770
H         -0.15220        0.66080        1.54780
H         -0.83850       -0.43720       -1.26290
H         -2.04970        0.23070       -0.12020
H         -1.04570        2.20190       -0.21030
H          2.99540        0.92580       -0.37570
