27

N          5.49040       -0.55640        0.96710
C          4.08880       -0.30350        0.86710
C          3.31900       -0.11070        2.01700
C          1.95020        0.12260        1.89130
C          1.34940        0.15430        0.62830
N         -0.07420        0.30510        0.56300
N         -0.84950       -0.22760       -0.47600
C         -2.26890       -0.05940       -0.53040
C         -2.96190        0.64940        0.46710
C         -4.35040        0.79790        0.38600
C         -5.05320        0.24230       -0.68690
C         -4.36850       -0.46280       -1.68070
C         -2.98020       -0.61320       -1.60270
C          2.16920        0.00320       -0.51650
N          1.66060        0.16070       -1.84410
N          3.50100       -0.23220       -0.35670
H          5.96190       -0.60910        1.89760
H          6.06270       -0.69320        0.10450
H          3.77240       -0.15180        2.99940
H          1.34790        0.24890        2.78240
H         -2.43390        1.08620        1.30480
H         -4.88150        1.34380        1.15500
H         -6.12760        0.35820       -0.74820
H         -4.91320       -0.89260       -2.51140
H         -2.45710       -1.16050       -2.37700
H          2.26360       -0.08740       -2.65970
H          0.78290        0.68790       -2.04030
