88

C          3.02680       -4.02670       -0.99600
O          2.40120       -3.20910       -0.01460
C          1.55660       -2.14410       -0.34540
O          1.30700       -1.89270       -1.55480
C          0.93530       -1.32790        0.77310
C          1.68480       -0.00250        1.13140
C          3.22450       -0.17750        1.27240
C          4.02370        0.94060        0.57280
C          5.49820        0.66120        0.66300
N          6.24070        0.67100        1.79390
C          7.49320        0.37120        1.39660
C          8.63070        0.27290        2.19490
C          9.85780       -0.04110        1.57660
O         10.99940       -0.13960        2.38550
C         12.30220       -0.44870        1.90160
C          9.90500       -0.24570        0.16830
C          8.73980       -0.13870       -0.61210
C          7.54920        0.16950        0.03880
C          6.26780        0.34100       -0.43480
C          5.74230        0.29960       -1.82900
C          4.21270        0.15060       -1.78870
N          3.60370        1.12650       -0.84910
C          2.13620        1.25430       -1.06060
C          1.31360        1.21380        0.24420
C         -0.20470        1.34240        0.00940
C         -0.86650        0.03130       -0.44200
O         -2.28080        0.21230       -0.53070
C         -2.91290        0.93490       -1.55080
O         -2.24160        1.42800       -2.49740
C         -4.37220        1.11730       -1.53670
C         -5.14130        0.58640       -0.57640
C         -6.61770        0.73080       -0.53070
C         -7.36210       -0.21870        0.17950
C         -8.76520       -0.13150        0.26610
O         -9.50350       -1.09480        0.97210
C         -8.94820       -2.21790        1.64940
C         -9.43190        0.94660       -0.37010
O        -10.82910        1.12360       -0.34840
C        -11.78300        0.27830        0.28510
C         -8.68640        1.91170       -1.06630
O         -9.38070        2.97180       -1.67310
C         -8.76970        4.02270       -2.41500
C         -7.28650        1.80400       -1.13950
C         -0.58590       -1.09290        0.57170
O         -1.21240       -2.28220        0.11170
C         -1.77010       -3.00520        1.18700
H          3.68460       -3.40920       -1.64320
H          3.64300       -4.79720       -0.48910
H          2.25690       -4.53190       -1.61670
H          1.02270       -1.96840        1.67910
H          1.31540        0.27070        2.14770
H          3.57060       -1.15460        0.88380
H          3.48730       -0.17850        2.35370
H          3.85540        1.89700        1.11400
H          5.91450        0.87770        2.76430
H          8.57240        0.43580        3.26360
H         13.01190       -0.46140        2.75400
H         12.63290        0.32340        1.17520
H         12.30390       -1.45060        1.42260
H         10.83550       -0.48610       -0.32720
H          8.77060       -0.29230       -1.68310
H          6.18920       -0.55550       -2.37960
H          6.01330        1.24540       -2.34470
H          3.83230        0.32000       -2.82050
H          3.94770       -0.88680       -1.49270
H          1.75210        0.48750       -1.76120
H          1.95290        2.23080       -1.55760
H          1.59180        2.13210        0.81010
H         -0.68440        1.67250        0.95790
H         -0.39600        2.14040       -0.73950
H         -0.48620       -0.25750       -1.44290
H         -4.81260        1.67550       -2.35190
H         -4.67740       -0.02420        0.19000
H         -6.83780       -1.03540        0.65780
H         -9.76890       -2.80080        2.11520
H         -8.25650       -1.87860        2.44910
H         -8.41320       -2.87250        0.92940
H        -11.60460        0.24980        1.38050
H        -11.74450       -0.74140       -0.15240
H        -12.79790        0.69080        0.11130
H         -9.55740        4.71130       -2.78330
H         -8.07420        4.59480       -1.76530
H         -8.22470        3.60700       -3.28870
H         -6.72060        2.56980       -1.64780
H         -1.00790       -0.74300        1.54790
H         -1.00440       -3.24710        1.95650
H         -2.17160       -3.96350        0.79870
H         -2.61590       -2.44390        1.64180
