46

C         -4.79730        2.38550       -0.65520
C         -4.20780        1.39860       -0.29160
C         -3.48210        0.18230        0.15500
O         -4.28570       -0.95950       -0.06510
C         -3.19960        0.25550        1.65910
C         -1.91520       -0.53740        1.89630
C         -1.36030       -0.92880        0.51370
C          0.19940       -0.94650        0.49230
C          0.76120       -1.89710       -0.58180
C          2.27350       -2.06920       -0.42370
C          3.00210       -0.76500       -0.20470
C          4.40090       -0.75280       -0.33290
C          5.13010        0.41660       -0.08760
O          6.51650        0.43100       -0.22320
C          4.46460        1.57990        0.30050
C          3.07660        1.57970        0.44670
C          2.32870        0.41430        0.20040
C          0.81900        0.46490        0.35950
C          0.18590        1.25250       -0.79840
C         -1.32740        1.38500       -0.60530
C         -2.06980        0.01240       -0.49990
C         -2.19230       -0.61960       -1.91150
H         -5.31390        3.25200       -0.97460
H         -4.67350       -0.91030       -0.97840
H         -3.04510        1.30740        1.99120
H         -4.04160       -0.16550        2.25240
H         -1.19860        0.09000        2.46910
H         -2.12710       -1.44910        2.49740
H         -1.71630       -1.96920        0.33160
H          0.53120       -1.36360        1.47170
H          0.55960       -1.51760       -1.60030
H          0.28350       -2.89720       -0.49550
H          2.66420       -2.56440       -1.33960
H          2.48150       -2.73900        0.43890
H          4.92500       -1.65600       -0.62170
H          7.03020       -0.39670       -0.50230
H          5.02480        2.48600        0.49330
H          2.58130        2.49230        0.75500
H          0.60560        1.01670        1.30210
H          0.42160        0.78460       -1.77580
H          0.61610        2.27740       -0.82570
H         -1.49590        1.99050        0.31150
H         -1.73940        1.97440       -1.45390
H         -2.52620       -1.67740       -1.85630
H         -1.23920       -0.59590       -2.46880
H         -2.92870       -0.05180       -2.51940
