22

C         -1.75760        1.34150        0.95560
C         -1.52850        0.11700        0.06670
C         -0.24980       -0.68680        0.44450
C         -0.50160       -2.18580        0.19370
C          1.00360       -0.21130       -0.34990
N          2.15950       -1.06660       -0.06040
C          1.34920        1.22620       -0.05980
O          1.68630        1.57880        1.10300
O          1.29960        2.16890       -1.08200
H         -0.98320        2.11450        0.78760
H         -2.74290        1.79240        0.71260
H         -1.76310        1.04900        2.02700
H         -1.49180        0.43540       -0.99780
H         -2.43240       -0.52240        0.17450
H         -0.04960       -0.57480        1.53400
H         -0.68510       -2.37520       -0.88580
H          0.36490       -2.79550        0.52540
H         -1.38350       -2.53220        0.77420
H          0.77840       -0.30110       -1.43640
H          2.96950       -0.75150       -0.64310
H          2.43160       -0.96050        0.94460
H          1.52650        3.14000       -0.90430
