62

O         -8.86550       -1.12060        3.24100
C         -7.94540       -0.60040        2.33260
C         -7.16270       -1.45620        1.54680
C         -6.24170       -0.93090        0.63660
C         -6.09910        0.45950        0.49100
C         -5.07640        1.02260       -0.47030
O         -5.63450        2.11570       -1.15670
C         -3.81640        1.46110        0.30850
N         -2.75720        2.01140       -0.55370
C         -2.16290        0.99950       -1.43710
C         -0.81980        1.50970       -1.97060
C         -0.20760        0.58710       -3.04000
C          0.10400       -0.84720       -2.56630
C          1.03020       -0.94370       -1.34080
C          2.41850       -0.33910       -1.59160
N          3.29640       -0.58910       -0.43880
C          4.05930       -1.83590       -0.60330
C          4.74750       -2.22490        0.72030
O          5.32830       -3.50270        0.63130
C          5.78060       -1.20240        1.15730
C          5.60580       -0.49510        2.35880
C          6.54730        0.45320        2.76590
C          7.67810        0.71000        1.98000
O          8.61540        1.65730        2.38900
C          7.86330        0.00860        0.77720
O          8.97770        0.24160       -0.02820
C          6.91870       -0.94110        0.37190
C         -6.87700        1.31390        1.29360
C         -7.80070        0.78690        2.20760
O         -8.57570        1.63560        2.99610
H         -8.99160       -2.11970        3.35430
H         -7.26470       -2.52960        1.64340
H         -5.63910       -1.61040        0.04660
H         -4.80110        0.22030       -1.19450
H         -5.25040        2.11680       -2.07220
H         -3.41670        0.60330        0.89420
H         -4.10030        2.24300        1.04630
H         -3.14150        2.79510       -1.13120
H         -2.84150        0.79510       -2.29450
H         -1.99180        0.05490       -0.87640
H         -0.97780        2.50740       -2.43540
H         -0.10930        1.65480       -1.12970
H         -0.90890        0.52510       -3.90050
H          0.72100        1.05650       -3.42840
H          0.57160       -1.39950       -3.41040
H         -0.84690       -1.37420       -2.33870
H          1.14040       -2.01980       -1.08920
H          0.56070       -0.45760       -0.45990
H          2.85600       -0.74080       -2.53440
H          2.30580        0.75950       -1.72280
H          3.98490        0.19860       -0.38820
H          4.81170       -1.72200       -1.41570
H          3.37820       -2.66760       -0.88820
H          3.94720       -2.29120        1.49010
H          5.92980       -3.51380       -0.15810
H          4.73850       -0.67370        2.98210
H          6.39630        0.98970        3.69400
H          8.50380        2.17600        3.25230
H          9.68930        0.91820        0.22030
H          7.07550       -1.47030       -0.55920
H         -6.76380        2.38790        1.21150
H         -8.49340        2.64350        2.92940
