69

C         -7.24030       -2.50440       -1.33510
C         -5.73070       -2.43180       -1.54570
C         -5.15670       -1.12180       -0.99350
C         -3.63840       -1.04750       -1.21920
C         -2.99410        0.19820       -0.56240
C         -3.47350        1.52010       -1.23390
C         -4.44240        2.29840       -0.34430
C         -1.45170        0.06870       -0.62670
N         -0.76310        1.22280        0.00000
C          0.63530        1.37120       -0.48960
N          1.65460        1.19960        0.56370
C          1.87090       -0.20630        0.97740
C          3.36960       -0.56070        0.87300
C          3.69080       -1.87570        1.63160
C          3.07990       -3.13550        1.01170
C          3.82820       -0.56320       -0.60790
C          5.33880       -0.79250       -0.77130
C          5.76950       -0.59670       -2.22970
C          7.26580       -0.84200       -2.40080
C          1.48070        2.14200        1.68560
C         -0.00400        2.29470        2.14130
C         -0.52640        3.69920        1.76480
N         -0.07500        2.15670        3.60340
C         -0.89640        1.21890        1.47410
H         -7.62680       -3.46230       -1.74260
H         -7.48150       -2.45600       -0.25180
H         -7.74420       -1.66560       -1.86120
H         -5.25520       -3.29620       -1.03280
H         -5.51520       -2.50590       -2.63400
H         -5.65340       -0.27040       -1.50570
H         -5.37270       -1.05770        0.09570
H         -3.17840       -1.96150       -0.78170
H         -3.42310       -1.05340       -2.31090
H         -3.29030        0.17890        0.50820
H         -2.61920        2.19340       -1.46160
H         -3.96410        1.31840       -2.21080
H         -4.78450        3.21130       -0.87580
H         -5.32970        1.68130       -0.09340
H         -3.93550        2.60610        0.59480
H         -1.12590       -0.88030       -0.14500
H         -1.18230       -0.00070       -1.70500
H          0.74060        2.39160       -0.91540
H          0.87150        0.69010       -1.33800
H          1.53090       -0.36980        2.02420
H          1.28680       -0.90840        0.34320
H          3.93140        0.24620        1.39550
H          3.32710       -1.78860        2.67870
H          4.79090       -2.00850        1.70310
H          3.32720       -4.01110        1.64810
H          3.49580       -3.32250        0.00060
H          1.97520       -3.05550        0.95330
H          3.26740       -1.32900       -1.18560
H          3.58100        0.42500       -1.05390
H          5.59540       -1.82800       -0.46160
H          5.89420       -0.07740       -0.12530
H          5.21200       -1.30320       -2.88280
H          5.53710        0.44100       -2.55430
H          7.54800       -0.69110       -3.46410
H          7.84710       -0.13190       -1.77470
H          7.52210       -1.88290       -2.10970
H          2.12960        1.83640        2.53740
H          1.89810        3.12380        1.37100
H         -0.45900        3.87230        0.67000
H          0.06930        4.48240        2.28130
H         -1.58810        3.81900        2.07050
H          0.24470        1.19900        3.87980
H         -1.07040        2.24220        3.91590
H         -0.66590        0.21390        1.88740
H         -1.94970        1.43290        1.75040
