70

C         -3.93480       -3.45000       -2.36760
C         -3.28290       -3.46050       -1.20580
C         -2.61050       -2.27840       -0.63100
O         -1.82720       -2.45260        0.34130
N         -2.86700       -0.94770       -1.11310
C         -2.14920        0.19970       -0.63380
C         -0.74810        0.18640       -0.59980
C         -0.02610        1.31450       -0.17870
N          1.41220        1.29750       -0.16120
C          2.19260        0.17250        0.26740
N          1.61150       -0.87450        0.91300
C          2.35060       -1.92870        1.34110
C          3.72840       -1.94570        1.13020
C          4.32410       -0.85650        0.47650
C          5.78400       -0.81650        0.22100
C          6.66920       -1.89460        0.28540
N          7.92220       -1.49670       -0.03230
C          9.10970       -2.34410       -0.08700
C          7.85000       -0.17940       -0.30110
C          8.89190        0.67340       -0.67550
C          8.58900        2.02680       -0.89930
C          7.26900        2.49800       -0.74380
C          6.23730        1.62050       -0.36670
C          6.55970        0.27500       -0.15710
N          3.53680        0.17360        0.06560
C         -0.71460        2.48940        0.17080
O          0.02830        3.61380        0.56680
C         -0.53720        4.86400        0.94740
C         -2.12150        2.50550        0.12890
C         -2.84310        1.36790       -0.26420
N         -4.28390        1.38560       -0.23320
C         -5.00040        2.49490       -0.86880
C         -4.97940        0.55320        0.76020
C         -6.14740       -0.22330        0.13150
N         -6.51570       -1.38370        0.97100
C         -7.25490       -2.37440        0.17210
C         -7.33800       -0.96490        2.11950
H         -4.39630       -4.35940       -2.72990
H         -4.00220       -2.56700       -2.98640
H         -3.21620       -4.39710       -0.66550
H         -3.68950       -0.77500       -1.72960
H         -0.21970       -0.69370       -0.94290
H          1.92470        2.17450       -0.40720
H          1.86830       -2.75230        1.85020
H          4.30970       -2.78500        1.48660
H          6.41050       -2.91590        0.53180
H          9.88320       -1.94980        0.60500
H          8.86140       -3.38480        0.21230
H          9.51280       -2.35600       -1.12140
H          9.90470        0.30970       -0.78960
H          9.37440        2.71250       -1.18930
H          7.04900        3.54410       -0.91330
H          5.23300        1.99680       -0.23970
H         -1.18520        4.73410        1.83990
H          0.28050        5.56870        1.20240
H         -1.12390        5.28980        0.10610
H         -2.66660        3.39220        0.42180
H         -5.94360        2.13490       -1.32770
H         -5.23390        3.27390       -0.11290
H         -4.38480        2.94570       -1.67670
H         -5.35230        1.20350        1.58010
H         -4.26980       -0.17490        1.21290
H         -5.82530       -0.56940       -0.87470
H         -7.01910        0.45260       -0.02130
H         -7.53920       -3.24480        0.80220
H         -6.60940       -2.76450       -0.64420
H         -8.17410       -1.92940       -0.27090
H         -7.58960       -1.84420        2.75080
H         -8.28250       -0.47900        1.78700
H         -6.77370       -0.25980        2.76440
