59

C         -3.30370        3.69480       -0.83290
C         -4.27290        2.96140        0.09510
C         -3.55370        1.96250        1.01590
C         -3.08640        0.71060        0.31210
N         -3.35310        0.44240       -0.98320
C         -2.77480       -0.75200       -1.22840
C         -2.83750       -1.40460       -2.60410
C         -1.54340       -1.10410       -3.37200
C         -3.06660       -2.92820       -2.52100
O         -3.89770       -0.83430       -3.33680
C         -2.15010       -1.19090       -0.06190
C         -1.34440       -2.40890        0.13200
O         -1.59370       -3.17740        1.09820
O         -0.27610       -2.68830       -0.71210
N         -2.36620       -0.27010        0.90440
C         -1.80260       -0.26610        2.26200
C         -0.30360       -0.12420        2.20300
C          0.27400        0.99270        1.57860
C          1.66070        1.08700        1.44420
C          2.48960        0.06530        1.93230
C          3.95340        0.13750        1.73880
C          4.77450        0.20620        2.87690
C          6.15620        0.34890        2.74730
C          6.73490        0.42400        1.48150
C          5.93630        0.34290        0.33910
C          4.54190        0.18760        0.44660
C          3.74080        0.02730       -0.79310
N          2.60890       -0.69720       -0.89150
N          2.24120       -0.59420       -2.16070
N          3.10900        0.15620       -2.82220
N          4.05560        0.55100       -1.99030
C          1.91740       -1.02920        2.59680
C          0.52950       -1.12520        2.72860
H         -3.86700        4.41920       -1.45790
H         -2.54940        4.25310       -0.23850
H         -2.78160        2.98320       -1.50530
H         -4.78570        3.71810        0.72760
H         -5.05420        2.44490       -0.50390
H         -2.68740        2.46790        1.49310
H         -4.25480        1.66010        1.82280
H         -1.59790       -1.53070       -4.39670
H         -0.65700       -1.53210       -2.86490
H         -1.39710       -0.00590       -3.46190
H         -2.15680       -3.47040       -2.19870
H         -3.34600       -3.32280       -3.52150
H         -3.89310       -3.15900       -1.81490
H         -4.74540       -1.03800       -2.85910
H          0.29680       -3.51150       -0.57110
H         -2.09660       -1.20350        2.78080
H         -2.21870        0.56700        2.86490
H         -0.34950        1.77790        1.17130
H          2.08860        1.94610        0.94200
H          4.33970        0.17010        3.86870
H          6.77890        0.40830        3.63070
H          7.80730        0.53450        1.38430
H          6.41690        0.37180       -0.63040
H          4.86250        1.16270       -2.24350
H          2.54450       -1.82190        2.98620
H          0.10560       -1.99250        3.21920
