27

C         -1.58420        1.64660        0.44410
C         -1.77110        0.11770        0.52410
N         -1.96550       -0.41190       -0.83450
C         -0.54610       -0.56060        1.21000
C          0.75320       -0.39680        0.45440
C          1.60020        0.69140        0.72460
C          2.80990        0.83240        0.03820
C          3.19250       -0.11900       -0.91660
O          4.39500        0.01150       -1.60750
C          2.36090       -1.21240       -1.17790
C          1.15060       -1.35570       -0.49300
C         -3.00960       -0.15530        1.36660
O         -3.01420        0.17200        2.58400
O         -4.15960       -0.74330        0.83670
H         -2.50120        2.12510        0.03680
H         -1.37950        2.07400        1.44960
H         -0.74080        1.91130       -0.22750
H         -1.18040       -0.11130       -1.45670
H         -1.95460       -1.45820       -0.80770
H         -0.75320       -1.64620        1.34200
H         -0.41630       -0.15330        2.23750
H          1.32130        1.43270        1.46320
H          3.44970        1.67950        0.25070
H          5.01950        0.79180       -1.44040
H          2.65400       -1.95320       -1.91100
H          0.52170       -2.21150       -0.70410
H         -4.25210       -0.99740       -0.13810
