58

C         -3.51590       -0.59460        3.23350
C         -3.25300       -0.59540        2.05650
C         -2.93400       -0.59640        0.60750
O         -4.12420       -0.22820       -0.11780
C         -5.37850       -0.85240       -0.02550
C         -6.49960       -0.36060       -0.87530
O         -5.58530       -1.78650        0.79580
C         -2.49530       -1.98540        0.14370
C         -1.78760       -1.71890       -1.16680
C         -0.97370       -0.44210       -0.92700
C          0.55170       -0.72650       -0.70300
C          0.91870       -1.92310        0.22210
C          2.43170       -2.16640        0.25250
C          3.22030       -0.90190        0.49760
C          4.42920       -0.99650        1.07850
C          5.39630        0.11910        1.07190
N          6.57480       -0.09190        1.58380
O          7.62800        0.80120        1.54460
C          5.04900        1.40190        0.35340
C          3.53530        1.61390        0.32640
C          2.80090        0.36860       -0.22190
C          1.25450        0.55200       -0.21280
C          0.69650        1.00770        1.15920
C         -0.77970        0.63680        1.44090
C         -1.71730        0.35820        0.20840
C         -2.31630        1.71310       -0.33050
C         -1.33900        2.80660       -0.76010
H         -3.74620       -0.59360        4.26620
H         -6.09650        0.14660       -1.77690
H         -7.13610       -1.21170       -1.19710
H         -7.11390        0.35950       -0.29610
H         -3.34160       -2.68790       -0.00460
H         -1.78850       -2.44030        0.87150
H         -1.19220       -2.58600       -1.51670
H         -2.55420       -1.52420       -1.95110
H         -1.02940        0.13980       -1.87470
H          0.96440       -0.97320       -1.70870
H          0.45580       -2.86350       -0.13390
H          0.57020       -1.76920        1.25890
H          2.65030       -2.92740        1.03420
H          2.74890       -2.58870       -0.72580
H          4.74540       -1.94060        1.50820
H          7.59670        1.66710        1.02240
H          5.49360        2.27680        0.87220
H          5.44310        1.35800       -0.68470
H          3.30020        2.49680       -0.30710
H          3.21000        1.83970        1.36410
H          3.11360        0.24870       -1.28410
H          1.04590        1.35300       -0.94860
H          1.30840        0.55960        1.97340
H          0.83210        2.10400        1.26220
H         -1.22710        1.43190        2.07720
H         -0.75410       -0.25950        2.09270
H         -2.98080        2.14560        0.45010
H         -2.94940        1.51280       -1.22270
H         -0.72030        2.47650       -1.61620
H         -1.92110        3.68700       -1.10580
H         -0.71480        3.15020        0.08380
