28

C         -3.19560        2.45110       -0.21500
O         -2.05160        1.60630       -0.14390
C         -2.09100        0.24030        0.17760
C         -3.29910       -0.42630        0.46420
C         -3.29590       -1.78660        0.77980
C         -2.09450       -2.49450        0.81320
C         -0.89080       -1.84530        0.53110
C         -0.88080       -0.47290        0.21120
O          0.30720        0.21640       -0.07840
C          1.60520       -0.37370       -0.07980
C          2.64840        0.68720       -0.44170
O          2.62670        1.70900        0.52140
C          4.05430        0.07710       -0.53230
O          4.45880       -0.40650        0.71940
H         -3.70390        2.48940        0.77160
H         -3.89660        2.08000       -0.99220
H         -2.87260        3.47640       -0.48830
H         -4.24480        0.09770        0.44570
H         -4.22720       -2.29300        0.99900
H         -2.09570       -3.54890        1.05820
H          0.02540       -2.41860        0.56420
H          1.82460       -0.78910        0.92820
H          1.63500       -1.19380       -0.83050
H          2.37960        1.10440       -1.44050
H          3.08430        2.49250        0.11820
H          4.05700       -0.74980       -1.27780
H          4.76760        0.85850       -0.87790
H          5.36570       -0.78720        0.58720
