58

C          2.90150       -1.75800        2.84100
C          2.76970       -0.70590        2.26720
C          2.61880        0.57880        1.56820
C          1.83390        0.47540        0.23740
C          2.39550       -0.58850       -0.73730
C          3.82810       -0.31920       -1.10620
C          4.17520        0.76560       -1.92730
N          5.48100        0.98480       -2.23610
C          6.45880        0.16970       -1.76300
N          7.75880        0.40000       -2.07670
C          8.74210       -0.41290       -1.60500
N         10.10250       -0.15600       -1.94480
N          8.42850       -1.47100       -0.80820
C          7.14090       -1.74480       -0.46480
N          6.85960       -2.86540        0.37780
C          6.11580       -0.91820       -0.94380
N          4.80970       -1.13740       -0.63780
C          0.34340        0.27840        0.47620
C         -0.16960       -0.93560        0.96900
C         -1.54110       -1.09400        1.18370
C         -2.43520       -0.04780        0.90200
C         -3.88730       -0.22890        1.14020
O         -4.27290       -1.08770        1.98030
N         -4.86100        0.54430        0.41820
C         -6.28670        0.51370        0.76560
C         -7.14730        1.14540       -0.34720
C         -7.14750        0.29070       -1.62270
C         -7.98110        0.93040       -2.69330
O         -7.43330        1.36390       -3.74090
O         -9.36150        1.03990       -2.54920
C         -6.50170        1.24370        2.06060
O         -6.17750        2.45740        2.16730
O         -7.05500        0.57560        3.14840
C         -1.92410        1.16870        0.41860
C         -0.55210        1.32750        0.20490
H          3.01680       -2.68210        3.34320
H          3.63410        0.98290        1.36830
H          2.10960        1.29580        2.24720
H          1.96750        1.46120       -0.26230
H          2.32050       -1.60130       -0.28710
H          1.78520       -0.60200       -1.66690
H          3.41470        1.42830       -2.31930
H         10.86290       -0.77530       -1.58630
H         10.35110        0.65380       -2.55520
H          5.88410       -3.10130        0.66600
H          7.63920       -3.46830        0.72270
H          0.48470       -1.76910        1.18220
H         -1.90450       -2.04280        1.55880
H         -4.55050        1.10590       -0.40600
H         -6.61040       -0.54330        0.89490
H         -6.77060        2.16640       -0.58100
H         -8.19370        1.24280        0.01860
H         -6.10700        0.16550       -1.99290
H         -7.55850       -0.71840       -1.40450
H         -9.83490        0.67660       -1.73070
H         -7.20380        1.05230        4.02980
H         -2.57580        2.01080        0.22780
H         -0.18950        2.27890       -0.16420
