42

C          0.68220       -2.55210       -1.31100
C          0.05010       -1.43920       -0.50840
C         -1.28030       -1.08650       -0.78640
C         -1.93850       -0.06350       -0.07490
C         -3.40210        0.34340       -0.35720
C         -3.45370        1.83180       -0.76680
C         -4.05610       -0.47680       -1.49580
C         -4.25050        0.13200        0.91610
C         -1.21680        0.60190        0.93320
C          0.11620        0.27870        1.22890
C          0.80420        1.03520        2.33970
C          0.76580       -0.75880        0.51080
C          2.21980       -1.11220        0.78970
C          3.14360       -0.53060       -0.28320
N          4.51490       -0.98780       -0.06800
C          5.34740        0.19240       -0.18140
C          4.44050        1.37160        0.05910
N          3.09740        0.93120       -0.27920
H          1.58400       -2.17970       -1.83860
H          0.96080       -3.39210       -0.64170
H         -0.01010       -2.95540       -2.08030
H         -1.79080       -1.62850       -1.56780
H         -2.81080        2.00990       -1.65590
H         -3.10670        2.49520        0.05250
H         -4.49260        2.13560       -1.02050
H         -4.08380       -1.55820       -1.24030
H         -3.50600       -0.33700       -2.45160
H         -5.10500       -0.14940       -1.66560
H         -5.31820        0.37510        0.72360
H         -4.18800       -0.92630        1.25020
H         -3.90890        0.78100        1.74900
H         -1.69710        1.38750        1.50070
H          1.00720        0.35010        3.18930
H          1.75570        1.47490        1.97830
H          0.18060        1.87200        2.72040
H          2.33740       -2.21550        0.81110
H          2.55570       -0.77040        1.78950
H          5.77690        0.23990       -1.20560
H          6.16780        0.15650        0.56640
H          4.74760        2.24890       -0.55330
H          4.46520        1.65470        1.13380
H          2.89520        1.22090       -1.26410
