26

C         -2.11620        1.38650        0.50460
C         -2.24590        0.00360       -0.14690
N         -3.58550       -0.52530        0.12610
C         -1.14740       -0.97240        0.35260
O         -1.33660       -2.23520       -0.23290
C          0.24340       -0.46840        0.01840
C          0.66850       -0.37710       -1.31790
C          1.94930        0.09050       -1.62160
C          2.82480        0.47080       -0.59580
O          4.10200        0.93800       -0.90190
C          2.40990        0.37870        0.74350
O          3.25750        0.74870        1.78720
C          1.12620       -0.09080        1.04440
H         -1.15930        1.86880        0.21370
H         -2.94630        2.04240        0.16590
H         -2.15770        1.30180        1.61170
H         -2.14540        0.13730       -1.24710
H         -3.73930       -1.38310       -0.45200
H         -3.65390       -0.80390        1.13240
H         -1.25940       -1.06920        1.45890
H         -0.79630       -2.88040        0.29480
H          0.00910       -0.67110       -2.12480
H          2.26150        0.15590       -2.65620
H          4.42410        1.01330       -1.85980
H          4.19520        1.09460        1.62210
H          0.81770       -0.15410        2.08070
