26

C         -2.88490        0.44090        0.82640
C         -1.56870        0.11230        0.08970
C         -1.54310       -1.39470       -0.23770
N         -1.49880        0.87770       -1.16270
C         -0.37180        0.48730        1.00720
C          0.97680        0.21510        0.37990
C          1.53530        1.12550       -0.53410
C          2.78640        0.87380       -1.10560
C          3.49260       -0.28270       -0.76470
C          2.95070       -1.18770        0.15160
C          1.70030       -0.93970        0.72620
H         -2.96280       -0.14180        1.76970
H         -2.93240        1.52220        1.07790
H         -3.76230        0.19480        0.19020
H         -1.51690       -1.99920        0.69450
H         -2.44620       -1.68370       -0.81740
H         -0.65330       -1.64850       -0.85200
H         -2.31970        0.63780       -1.76590
H         -1.56880        1.90000       -0.94940
H         -0.45500       -0.07370        1.96490
H         -0.42700        1.56470        1.27940
H          1.00610        2.03180       -0.79970
H          3.20990        1.57720       -1.81080
H          4.46090       -0.47580       -1.20790
H          3.49990       -2.08170        0.41730
H          1.29260       -1.65180        1.43290
