45

C          8.45440       -0.57090        1.61900
O          7.09670       -0.69440        2.03000
C          5.99550       -0.30510        1.25310
C          4.71290       -0.48210        1.78160
C          3.58250       -0.11230        1.04730
C          3.71740        0.43640       -0.24270
C          2.53880        0.85510       -1.04330
O          2.68530        1.98150       -1.86030
C          1.37620        0.17370       -0.97350
C          0.18630        0.45220       -1.80690
O          0.33890        0.78660       -3.01360
C         -1.18650        0.25860       -1.27170
C         -2.28030        0.17870       -2.14710
C         -3.57590        0.00200       -1.65640
C         -3.82700       -0.09600       -0.27080
C         -5.27330       -0.29110        0.22990
C         -5.37490       -0.38260        1.77170
C         -6.14170        0.90110       -0.22720
C         -5.84900       -1.59900       -0.35560
C         -2.71980       -0.00420        0.60360
C         -1.42420        0.17180        0.11010
C          5.00750        0.62860       -0.76470
C          6.13670        0.25700       -0.02900
H          9.11350       -0.95480        2.42430
H          8.63080       -1.16840        0.69960
H          8.70200        0.49580        1.43470
H          4.59150       -0.90240        2.77200
H          2.60860       -0.23380        1.50300
H          1.91460        2.44850       -2.31900
H          1.29560       -0.67060       -0.30120
H         -2.13580        0.24510       -3.21840
H         -4.38450       -0.05800       -2.37190
H         -6.43070       -0.52590        2.08950
H         -4.79110       -1.24670        2.15660
H         -5.00800        0.55160        2.24930
H         -5.71660        1.85600        0.15120
H         -7.17980        0.80370        0.15830
H         -6.20300        0.96130       -1.33390
H         -6.87670       -1.78340        0.02620
H         -5.21040       -2.46340       -0.07150
H         -5.90930       -1.55940       -1.46320
H         -2.83230       -0.06220        1.67580
H         -0.61110        0.25440        0.81970
H          5.14290        1.05570       -1.75080
H          7.11370        0.41140       -0.46610
