50

O         -0.97760       -0.63220       -1.30970
C         -1.44900       -0.04210       -0.11930
C         -0.22360        0.51620        0.67550
C          0.63680        1.54260       -0.09970
C          1.76350        0.92160       -0.93900
N          2.80110        0.33670       -0.05470
C          2.84210       -1.15090       -0.08790
C          4.03460       -1.69180       -0.88710
C          5.36720       -1.20920       -0.28720
C          5.24980        0.16870        0.38920
C          4.12000        0.99170       -0.23780
C         -2.40430        1.10960       -0.45100
C         -2.63700        1.51880       -1.78250
C         -3.51140        2.57380       -2.05990
C         -4.16700        3.23470       -1.02030
C         -3.95080        2.84240        0.30110
C         -3.07760        1.78930        0.58640
C         -2.24860       -1.10600        0.65350
C         -3.29070       -1.78080       -0.01660
C         -4.05530       -2.75010        0.63750
C         -3.79610       -3.06260        1.97180
C         -2.77270       -2.40500        2.65490
C         -2.00310       -1.43360        2.00720
H         -0.44140       -1.43120       -1.06250
H         -0.58650        1.02460        1.59460
H          0.41730       -0.32240        1.01800
H          0.00010        2.17110       -0.75680
H          1.10400        2.23650        0.63350
H          1.36080        0.18810       -1.66760
H          2.17860        1.74200       -1.56740
H          2.92050       -1.52010        0.95760
H          1.90560       -1.59120       -0.49120
H          4.00930       -2.80300       -0.89450
H          3.94860       -1.34320       -1.93970
H          5.72560       -1.94730        0.46320
H          6.12690       -1.16230       -1.09760
H          6.21220        0.71640        0.29370
H          5.03920        0.03660        1.47330
H          4.35050        1.13170       -1.31890
H          4.09570        1.99370        0.24220
H         -2.14290        1.03340       -2.61340
H         -3.68010        2.88000       -3.08440
H         -4.84360        4.05070       -1.23900
H         -4.46160        3.35400        1.10670
H         -2.93250        1.49890        1.61910
H         -3.51240       -1.55210       -1.05190
H         -4.85090       -3.25860        0.10840
H         -4.38970       -3.81320        2.47740
H         -2.57550       -2.64690        3.69140
H         -1.22830       -0.94800        2.58120
