24

O          3.51640       -0.93530        1.70670
C          3.39260       -0.09070        0.78120
O          3.80850        1.22080        0.99100
C          2.77240       -0.49470       -0.52420
C          1.32260       -0.00630       -0.63910
C          0.38660       -0.72810        0.34220
C         -1.04070       -0.28330        0.15180
C         -1.43480        1.01130        0.53230
C         -2.75960        1.42440        0.36050
C         -3.70060        0.54920       -0.18850
C         -3.31860       -0.74110       -0.56520
C         -1.99480       -1.15880       -0.39510
H          3.71130        1.92280        0.26720
H          2.81290       -1.59980       -0.64230
H          3.36780       -0.05120       -1.35070
H          0.97180       -0.19850       -1.67690
H          1.28600        1.09200       -0.46800
H          0.47220       -1.82580        0.18390
H          0.69130       -0.51810        1.39010
H         -0.71710        1.69770        0.96440
H         -3.05700        2.42260        0.65450
H         -4.72570        0.87040       -0.32070
H         -4.04870       -1.41830       -0.98940
H         -1.71490       -2.16130       -0.69400
