40

C         -3.67190       -1.41130       -0.18960
C         -2.56200       -0.38960       -0.51380
C         -1.69940       -0.92000       -1.69500
C         -0.28200       -0.34860       -1.69080
C          0.47270       -0.84600       -0.44690
C         -0.33950       -0.61100        0.82310
C          0.27210       -0.76000        2.01940
C          1.73270       -1.12850        2.09170
C          2.49110       -0.42620        0.99090
C          3.78550        0.06530        1.21080
C          4.47460        0.71830        0.18150
O          5.76050        1.21190        0.38990
C          3.87020        0.87680       -1.06850
C          2.58140        0.38760       -1.29930
C          1.87350       -0.26460       -0.27040
C         -1.74700       -0.03460        0.77100
C         -1.69340        1.50520        0.86480
C         -2.80160        2.05820       -0.02010
C         -3.19210        0.91930       -0.88090
O         -3.98720        1.04330       -1.80100
H         -4.36860       -1.01050        0.57890
H         -4.26100       -1.65190       -1.10110
H         -3.22600       -2.35170        0.19970
H         -1.62220       -2.02960       -1.64560
H         -2.18370       -0.68810       -2.66920
H          0.23560       -0.70540       -2.60750
H         -0.31910        0.76240       -1.71520
H          0.59950       -1.94700       -0.54890
H         -0.25250       -0.51750        2.93950
H          1.83180       -2.22560        1.94920
H          2.13540       -0.86400        3.09310
H          4.25720       -0.05930        2.17780
H          6.22740        1.11330        1.28390
H          4.40340        1.37860       -1.86610
H          2.15310        0.52310       -2.28190
H         -2.30530       -0.39540        1.66630
H         -0.71640        1.89320        0.49720
H         -1.82340        1.84330        1.91620
H         -2.43080        2.90550       -0.63670
H         -3.67270        2.38110        0.58960
