62

N         -4.52030        1.11760        0.17430
C         -3.71590        0.87970       -0.98630
O         -4.16440        1.24700       -2.10700
C         -2.39280        0.10470       -0.90200
C         -2.82770       -1.38270       -0.78870
C         -3.30900       -1.88340        0.44640
C         -3.75350       -3.20160        0.57180
C         -3.75180       -4.04890       -0.53320
C         -3.31260       -3.57720       -1.76800
C         -2.86620       -2.25920       -1.90270
C         -1.56060        0.53070        0.33950
C         -0.65290       -0.37050        0.94650
C          0.09080        0.00170        2.06780
C         -0.02270        1.28890        2.58860
C         -0.87180        2.21160        1.98150
C         -1.63050        1.84250        0.86780
C         -1.54060        0.39290       -2.21290
C         -1.11020        1.85150       -2.39630
C          0.38400        1.89630       -2.09460
N          0.82990        0.52810       -1.78910
C          2.14150        0.20010       -2.38550
C          3.28330        1.01340       -1.75490
C          3.31810        0.89700       -0.25210
C          3.13670        2.04600        0.55570
C          3.21290        1.95240        1.95440
C          3.46040        0.70440        2.51920
C          3.63450       -0.40950        1.75190
C          3.57430       -0.34910        0.35990
C          3.86420       -1.59200        2.62140
C          3.79300       -0.98400        4.04410
O          3.54850        0.41060        3.86170
C         -0.21570       -0.36830       -2.29430
H         -5.43760        1.60710        0.08020
H         -4.21060        0.83570        1.12900
H         -3.32790       -1.26020        1.32900
H         -4.10300       -3.56510        1.52950
H         -4.09790       -5.06970       -0.43440
H         -3.32330       -4.23370       -2.62870
H         -2.55480       -1.95440       -2.88780
H         -0.53080       -1.37700        0.57130
H          0.75660       -0.71230        2.53440
H          0.55540        1.57460        3.45780
H         -0.94780        3.21580        2.37800
H         -2.28080        2.58850        0.43340
H         -2.15190        0.13560       -3.10510
H         -1.67550        2.56510       -1.76650
H         -1.27390        2.15600       -3.45460
H          0.92120        2.33350       -2.96720
H          0.57120        2.54170       -1.20990
H          2.35610       -0.88120       -2.23420
H          2.13370        0.38070       -3.48460
H          4.25100        0.65030       -2.16330
H          3.18860        2.07690       -2.06340
H          2.94180        3.01030        0.10370
H          3.07210        2.82520        2.57810
H          3.72750       -1.24360       -0.23010
H          3.06350       -2.34680        2.46730
H          4.86500       -2.03130        2.42180
H          4.75300       -1.12900        4.58380
H          2.96120       -1.43670        4.62510
H         -0.22310       -1.31280       -1.71530
H         -0.03220       -0.63370       -3.36230
