18

N         -3.20040       -0.17170       -0.56570
C         -1.78100       -0.14500       -0.39280
C         -0.96990       -1.04610       -1.09010
C          0.41520       -1.02720       -0.91440
C          1.01600       -0.10650       -0.03700
C          2.47770       -0.18180        0.17720
O          3.23630       -0.52630       -0.76900
O          3.02360        0.06520        1.43350
C          0.19680        0.83360        0.63650
O          0.72150        1.84210        1.44740
C         -1.19290        0.78970        0.46770
H         -3.81450        0.49900       -0.05200
H         -3.64790       -0.86290       -1.20830
H         -1.41170       -1.77120       -1.76210
H          1.01730       -1.75390       -1.44650
H          4.02210       -0.00410        1.58970
H          1.70670        2.06330        1.49260
H         -1.81520        1.50380        0.99320
