48

C          5.81020       -0.55340       -1.60780
C          6.81440       -0.38230       -0.46810
C          6.17310        0.14400        0.82680
C          5.78210        1.62920        0.75540
O          4.64460        1.83860       -0.08220
C          3.32840        1.44810        0.21290
C          2.93920        0.97820        1.48020
C          1.61420        0.60120        1.71710
C          0.64930        0.68500        0.69640
C         -0.75640        0.27950        0.96670
O         -1.12450        0.09380        2.16000
C         -1.76020        0.12650       -0.15260
C         -3.02790       -0.62620        0.27780
N         -3.92960       -0.80780       -0.88200
C         -4.77660        0.38630       -1.15350
C         -6.25920        0.21130       -0.76240
C         -6.40020       -0.63460        0.50240
C         -5.75490       -2.02140        0.33400
C         -4.70890       -2.06040       -0.79730
C          1.04430        1.16730       -0.56600
C          2.36950        1.54420       -0.79970
H          6.29060       -1.10710       -2.44180
H          5.48620        0.43330       -1.99710
H          4.92370       -1.12930       -1.26640
H          7.63700        0.29100       -0.79290
H          7.26320       -1.37640       -0.25280
H          5.29790       -0.48260        1.09890
H          6.91730        0.03030        1.64450
H          6.63430        2.21270        0.34700
H          5.58300        2.02650        1.77330
H          3.64850        0.90230        2.29200
H          1.34700        0.23800        2.70170
H         -2.03010        1.13770       -0.52310
H         -1.28980       -0.43960       -0.98560
H         -3.53970       -0.07680        1.09880
H         -2.70870       -1.61170        0.68710
H         -4.72630        0.60970       -2.24030
H         -4.38280        1.29030       -0.63790
H         -6.72250        1.20830       -0.59850
H         -6.80990       -0.28140       -1.59390
H         -5.92340       -0.09820        1.35140
H         -7.47740       -0.75230        0.75010
H         -5.27520       -2.31710        1.29230
H         -6.54300       -2.77380        0.11280
H         -5.22620       -2.22740       -1.76790
H         -4.03290       -2.93240       -0.65820
H          0.33380        1.26690       -1.37540
H          2.65480        1.91180       -1.77740
