28

C         -2.48480       -0.41640       -2.18450
N         -2.85890       -0.11830       -0.80710
C         -2.03300        0.09060        0.18050
N         -2.57000        0.37230        1.48580
C         -4.00640        0.41770        1.73700
N         -0.60410        0.04130       -0.02480
C          0.35500        0.22440        1.06630
C          1.76910        0.05360        0.57440
C          2.21950       -1.21060        0.15830
C          3.52960       -1.37580       -0.30160
C          4.39840       -0.28220       -0.34900
C          3.95830        0.97860        0.06340
C          2.64870        1.14850        0.52400
H         -1.89880        0.42440       -2.61250
H         -3.40530       -0.54890       -2.78910
H         -1.89550       -1.35700       -2.22610
H         -1.93470        0.55600        2.29280
H         -4.46200       -0.56650        1.49860
H         -4.19640        0.65040        2.80620
H         -4.47400        1.20640        1.11070
H         -0.22800       -0.13020       -0.98420
H          0.16250       -0.52500        1.86420
H          0.21800        1.23830        1.50130
H          1.55490       -2.06530        0.18990
H          3.87130       -2.35180       -0.62150
H          5.41220       -0.41160       -0.70530
H          4.63200        1.82490        0.02560
H          2.32240        2.13230        0.83750
