46

O          6.64210        2.98380       -0.94110
C          5.77610        2.03530       -0.40180
C          6.10130        0.67230       -0.43050
C          5.22420       -0.27060        0.11410
C          4.01740        0.14190        0.70230
C          3.05550       -0.87500        1.25610
C          2.08160       -1.34250        0.16910
C          1.07640       -2.35820        0.73060
C          0.20050       -3.00780       -0.36090
N         -0.62960       -2.05580       -1.11840
C         -1.59710       -1.34360       -0.27250
C         -2.68480       -0.69500       -1.14880
O         -3.42780       -1.69700       -1.79520
C         -3.64760        0.21020       -0.39720
C         -3.70750        0.28270        1.01070
C         -4.62130        1.13350        1.63840
C         -5.49180        1.92200        0.88200
O         -6.39140        2.76090        1.53880
C         -5.44900        1.85720       -0.51940
O         -6.31600        2.63900       -1.28130
C         -4.53220        1.00370       -1.14940
C          3.69020        1.50770        0.71650
C          4.56900        2.44870        0.17120
H          7.52330        2.71630       -1.36390
H          7.03070        0.34280       -0.87720
H          5.48400       -1.32140        0.07600
H          2.48700       -0.43170        2.10340
H          3.61960       -1.74630        1.65590
H          1.53710       -0.45700       -0.22350
H          2.65540       -1.80790       -0.66260
H          0.43940       -1.87620        1.50240
H          1.63630       -3.17430        1.23770
H         -0.45260       -3.77560        0.10850
H          0.85860       -3.54970       -1.07430
H         -0.02160       -1.36650       -1.61760
H         -2.08090       -2.05360        0.43550
H         -1.07300       -0.54730        0.30150
H         -2.16750       -0.05700       -1.90530
H         -2.90820       -1.97720       -2.59370
H         -3.06120       -0.31360        1.63840
H         -4.65440        1.17870        2.71970
H         -7.04260        3.35130        1.03540
H         -6.30540        2.61070       -2.29420
H         -4.50710        0.95940       -2.23180
H          2.75470        1.84250        1.14760
H          4.31020        3.49980        0.19070
