37

N         -5.49130       -1.27030       -0.65730
C         -4.25830       -1.54210       -0.36280
N         -3.80520       -2.90110       -0.40850
C         -3.33100       -0.44090        0.00040
C         -3.57690        0.87120       -0.44450
C         -2.70650        1.91160       -0.10730
C         -1.56810        1.66160        0.66980
C         -0.67630        2.78830        1.02540
C          0.66500        2.73300        1.05310
C          1.47360        1.58530        0.58250
C          1.22580        1.02530       -0.68230
C          1.99920       -0.03650       -1.15400
C          3.05080       -0.55090       -0.37890
C          3.88120       -1.67640       -0.87670
N          3.35200       -2.64360       -1.55990
N          5.28350       -1.71430       -0.59910
C          3.31620        0.02400        0.87470
C          2.53910        1.08250        1.36010
O          2.83830        1.59720        2.62350
C         -1.34160        0.36160        1.15240
C         -2.20950       -0.68040        0.81450
H         -6.17180       -2.01650       -0.92360
H         -4.47600       -3.67780       -0.60200
H         -2.79280       -3.14110       -0.33080
H         -4.43720        1.09230       -1.06380
H         -2.91380        2.91220       -0.46690
H         -1.14560        3.73120        1.27940
H          1.19800        3.60610        1.40900
H          0.43880        1.42010       -1.31310
H          1.79050       -0.43580       -2.13840
H          2.33250       -2.69020       -1.78100
H          5.76450       -0.91470       -0.13110
H          5.86100       -2.52620       -0.91230
H          4.11410       -0.36440        1.49540
H          2.29650        2.33070        3.06240
H         -0.50430        0.15370        1.80640
H         -2.01450       -1.66460        1.21890
