44

C         -1.99560        2.91410       -1.41530
C         -2.04880        1.43670       -1.00920
C         -0.63070        0.90550       -0.73920
C         -0.66000       -0.56840       -0.31830
O          0.67170       -0.98070       -0.00790
C          1.35120       -2.01700       -0.66130
O          0.75520       -2.75490       -1.49330
C          2.79030       -2.29320       -0.30900
O          3.44720       -2.99350       -1.33750
C          3.53520       -1.01440        0.02030
C          4.13410       -0.84840        1.28210
C          4.81220        0.33440        1.59280
C          4.89810        1.36190        0.65020
C          4.30600        1.20900       -0.60560
C          3.62820        0.02800       -0.92210
C         -1.54280       -0.76110        0.92600
C         -2.98620       -0.21530        0.74450
C         -3.69680       -0.24070        2.11470
C         -3.79550       -1.11010       -0.22410
C         -2.94290        1.25250        0.23570
H         -1.55700        3.53130       -0.60170
H         -3.01860        3.28680       -1.63610
H         -1.37800        3.03720       -2.33050
H         -2.48580        0.87760       -1.86450
H         -0.01590        1.00140       -1.66110
H         -0.14440        1.50940        0.05970
H         -1.06920       -1.16990       -1.15800
H          2.77630       -2.95590        0.58280
H          3.37930       -2.45480       -2.16890
H          4.07650       -1.63230        2.02690
H          5.27050        0.45480        2.56590
H          5.42220        2.27700        0.89350
H          4.37000        2.00710       -1.33390
H          3.16620       -0.06840       -1.89660
H         -1.57540       -1.84350        1.18100
H         -1.05470       -0.24020        1.78060
H         -4.73460        0.14800        2.02610
H         -3.74450       -1.27740        2.51310
H         -3.15550        0.38810        2.85450
H         -3.84320       -2.15270        0.15780
H         -4.83550       -0.73190       -0.32580
H         -3.34960       -1.14320       -1.23730
H         -2.55460        1.90910        1.04720
H         -3.97470        1.59790        0.00200
