65

C          4.05080        5.31440        0.65990
C          4.79470        4.07710        0.16920
O          3.87900        3.07890       -0.27650
C          3.08810        2.31540        0.58960
O          3.21320        2.42490        1.84080
C          2.10450        1.32880        0.01470
C          2.58170       -0.11310        0.29310
C          3.85370       -0.46640       -0.49270
C          4.23900       -1.90570       -0.26820
C          4.75780       -2.31340        0.97290
C          5.11230       -3.64940        1.18420
C          4.95370       -4.58660        0.15990
C          4.44150       -4.18920       -1.07810
C          4.08610       -2.85410       -1.29430
N          0.76740        1.53440        0.60910
C         -0.32810        1.08090       -0.27630
C         -0.82220        2.21620       -1.18550
C         -1.47510        0.55690        0.55180
O         -1.52000        0.80270        1.78820
N         -2.52960       -0.20960       -0.05840
C         -2.32870       -1.20380       -1.12190
C         -1.25420       -2.18950       -0.75200
O         -0.31070       -2.42400       -1.55370
O         -1.29890       -2.84300        0.47620
C         -3.69260       -1.91140       -1.28800
C         -4.66040       -0.90780       -0.68550
C         -6.02100       -1.39780       -0.19330
C         -6.80210       -0.18040        0.35270
C         -5.99250        0.64360        1.38750
C         -4.55960        0.97990        0.91050
C         -3.87830       -0.32280        0.47310
H          3.43440        5.07090        1.55000
H          3.39120        5.70330       -0.14450
H          4.78140        6.10270        0.93860
H          5.44140        4.36840       -0.68510
H          5.44660        3.67160        0.97320
H          2.06330        1.49580       -1.08610
H          2.75950       -0.24320        1.38350
H          1.78620       -0.83330        0.00510
H          3.67450       -0.28170       -1.57480
H          4.69630        0.18700       -0.17860
H          4.88870       -1.59650        1.77400
H          5.51060       -3.95790        2.14210
H          5.22830       -5.62040        0.32520
H          4.31900       -4.91620       -1.87060
H          3.68650       -2.56320       -2.25780
H          0.62100        2.54350        0.85430
H          0.02140        0.25600       -0.93110
H          0.01750        2.61670       -1.79100
H         -1.60260        1.84060       -1.88110
H         -1.25400        3.04290       -0.58110
H         -2.06690       -0.68100       -2.06850
H         -0.57830       -3.50460        0.73880
H         -3.73900       -2.86610       -0.71660
H         -3.92360       -2.10680       -2.35770
H         -4.83050       -0.12400       -1.46320
H         -5.89860       -2.16270        0.60480
H         -6.58370       -1.85380       -1.03600
H         -7.74540       -0.53260        0.82250
H         -7.07900        0.48330       -0.49570
H         -5.93140        0.06530        2.33560
H         -6.53490        1.58800        1.60720
H         -4.00310        1.44460        1.75070
H         -4.59450        1.70810        0.07040
H         -3.85170       -1.03100        1.33460
