119

C          6.33260       -5.46010        2.29350
C          4.83480       -5.19180        2.44300
C          4.40370       -3.84570        1.83420
C          4.56000       -3.83560        0.29490
C          3.82970       -2.66500       -0.38500
C          4.42660       -1.29850       -0.00690
C          3.61720       -0.09190       -0.53330
O          4.48910        1.03210       -0.49590
C          4.72670        1.56550       -1.78770
C          5.42720        2.94180       -1.64990
C          6.42800        3.16910       -2.78600
C          7.43210        1.98770       -2.91310
N          8.78860        2.26080       -2.35940
C          9.59900        3.08010       -3.27620
C          8.80710        2.84050       -1.00270
C          6.83710        0.68490       -2.31310
C          7.50530       -0.55420       -2.91170
O          5.45040        0.63300       -2.58810
C          2.36370        0.20850        0.35690
C          1.85830        1.64650        0.15760
C          1.20100       -0.72530        0.08030
O          0.94560       -1.04030       -1.11530
C          0.26210       -1.16640        1.14380
C         -1.01440       -1.47800        0.86300
C         -1.74890       -1.73920        2.12090
C         -0.95350       -0.88810        3.11080
C         -1.48590       -1.14010        4.51430
C         -2.83110       -1.01200        4.67400
C         -3.62710       -0.61090        3.44010
C         -5.13910       -0.61280        3.43080
C         -5.47420       -0.62500        1.91350
O         -5.88700        0.67070        1.51700
C         -6.62890        0.63330        0.30860
C         -8.14100        0.52620        0.62660
C         -9.04530        1.21130       -0.42830
C        -10.45790        0.61140       -0.41070
C         -8.42330        1.14700       -1.84020
O         -8.26320       -0.21660       -2.20960
C         -8.54560       -0.40020       -3.57980
C         -7.04360        1.87480       -1.88320
O         -7.24560        3.20320       -2.34470
C         -6.17490        3.61860       -3.16490
C         -6.31010        1.90020       -0.50800
O         -6.70680        3.04960        0.23080
C         -5.58480        3.77960        0.67590
C         -4.16620       -1.02880        1.16900
C         -3.28560       -1.54620        2.28370
C          0.49740       -1.09120        2.65420
C          1.12140       -2.38960        3.22460
C          2.58030       -2.51360        2.92100
O          3.38730       -1.65990        3.37980
O          3.03410       -3.61360        2.18010
H          6.60030       -5.60770        1.22670
H          6.59860       -6.38500        2.84740
H          6.92270       -4.61670        2.71070
H          4.26140       -6.02360        1.97870
H          4.59220       -5.18290        3.52820
H          5.05810       -3.05770        2.26590
H          5.63740       -3.79330        0.02520
H          4.14540       -4.77950       -0.12220
H          2.75730       -2.72650       -0.12850
H          3.90730       -2.79220       -1.48680
H          5.45100       -1.25810       -0.43600
H          4.54700       -1.19750        1.08840
H          3.27610       -0.33510       -1.56910
H          3.75760        1.76450       -2.30100
H          5.96110        3.00220       -0.67790
H          4.66840        3.75470       -1.65390
H          5.84790        3.24990       -3.73250
H          6.93710        4.14510       -2.65580
H          7.53080        1.80270       -4.00870
H         10.62820        3.20230       -2.87500
H          9.69530        2.57460       -4.26080
H          9.15060        4.08570       -3.42510
H          8.19560        2.24400       -0.29870
H          8.45380        3.89320       -0.99660
H          9.84480        2.82450       -0.60640
H          7.00800        0.63260       -1.21520
H          8.59810       -0.53620       -2.71370
H          7.07920       -1.47030       -2.45020
H          7.33400       -0.60010       -4.00840
H          2.67140        0.12700        1.41800
H          1.60690        1.82880       -0.90940
H          2.62440        2.38250        0.48100
H          0.94990        1.82420        0.77340
H         -1.44940       -1.50300       -0.12810
H         -1.55680       -2.81140        2.35890
H         -1.15380        0.19190        2.90470
H         -0.84560       -1.42730        5.34060
H         -3.31010       -1.20320        5.62870
H         -3.32710        0.43390        3.18640
H         -5.54930        0.28230        3.94790
H         -5.52560       -1.53290        3.92340
H         -6.27090       -1.38850        1.74580
H         -6.33780       -0.23300       -0.33550
H         -8.34990        0.98790        1.61710
H         -8.39800       -0.55280        0.71070
H         -9.15180        2.28480       -0.15310
H        -10.43600       -0.46370       -0.68990
H        -11.11320        1.15290       -1.12570
H        -10.89820        0.70750        0.60470
H         -9.12840        1.68710       -2.52140
H         -8.29960       -1.44600       -3.85530
H         -7.93070        0.27260       -4.21830
H         -9.62790       -0.24170       -3.78040
H         -6.40400        1.28710       -2.58820
H         -6.31120        4.69200       -3.40860
H         -5.19630        3.51100       -2.64740
H         -6.17150        3.05110       -4.12130
H         -5.21360        1.88000       -0.73140
H         -5.93820        4.63470        1.28750
H         -4.92420        3.15460        1.31640
H         -5.01430        4.19120       -0.18520
H         -3.69040       -0.14600        0.68650
H         -4.35670       -1.81560        0.40740
H         -3.68860       -2.55750        2.54340
H          1.09490       -0.20300        2.95050
H          0.59940       -3.28600        2.82900
H          1.01490       -2.40290        4.32870
