30

C          3.86090        1.21120       -1.10210
C          3.05980        0.83220        0.10180
O          3.37560        1.31130        1.22430
N          1.94540       -0.06470       -0.01660
C          1.14570       -0.47130        1.14350
C          1.89570       -1.53310        1.90040
O          2.22900       -1.34890        3.06010
C         -0.24340       -1.00650        0.70370
O         -0.95060       -1.51870        1.80850
C         -1.08750        0.06550       -0.04260
O         -1.39020        1.13700        0.81780
C         -2.39670       -0.53620       -0.60660
O         -3.27960       -0.84300        0.44290
C         -3.08000        0.41730       -1.60130
O         -3.52650        1.57400       -0.94830
H          3.46670        0.71740       -2.01480
H          3.81830        2.31110       -1.24490
H          4.91730        0.90300       -0.95700
H          1.73020       -0.47230       -0.95500
H          0.98950        0.40840        1.80760
H          2.14610       -2.47080        1.41410
H         -0.06870       -1.85230        0.00160
H         -1.04690       -0.78640        2.47180
H         -0.49410        0.43070       -0.91420
H         -0.66940        1.81150        0.71270
H         -2.13820       -1.46790       -1.16330
H         -3.94630       -1.48340        0.08040
H         -2.36860        0.68930       -2.41320
H         -3.94760       -0.10440       -2.06410
H         -3.94600        2.14010       -1.64710
