42

C         -3.66740        1.41040       -0.69180
C         -2.51950        0.81990        0.15080
C         -1.65820        1.96800        0.74680
C         -0.26730        1.47460        1.15220
C          0.55300        1.03900       -0.08830
C          1.79090        0.20360        0.23720
C          2.33970        0.11690        1.53440
C          3.51370       -0.60590        1.76180
C          4.17240       -1.23510        0.70020
O          5.34610       -1.95320        0.91820
C          3.65230       -1.14030       -0.59220
C          2.46730       -0.42680       -0.82780
C          1.89370       -0.33240       -2.21290
C          0.39230       -0.60440       -2.14260
C         -0.34630        0.39790       -1.21120
C         -1.68180       -0.19910       -0.67950
C         -1.49740       -1.45560        0.20380
C         -2.58180       -1.42060        1.27360
C         -3.08210       -0.02670        1.25060
O         -3.89160        0.38870        2.06670
H         -4.34940        0.60820       -1.04910
H         -4.26210        2.13140       -0.09020
H         -3.25970        1.94340       -1.57750
H         -2.16390        2.41530        1.63100
H         -1.53550        2.78630        0.00230
H          0.26590        2.29690        1.67780
H         -0.38340        0.63490        1.87010
H          0.95880        1.97980       -0.52600
H          1.88420        0.61680        2.37700
H          3.91820       -0.66550        2.76420
H          5.74970       -2.04000        1.84370
H          4.17030       -1.62600       -1.41010
H          2.36480       -1.07530       -2.89310
H          2.07870        0.68350       -2.62420
H          0.25450       -1.65040       -1.79470
H         -0.03800       -0.54630       -3.16640
H         -0.64780        1.24300       -1.87280
H         -2.27640       -0.52340       -1.56530
H         -1.58600       -2.38370       -0.40210
H         -0.50040       -1.46100        0.69380
H         -2.16070       -1.66840        2.27180
H         -3.40970       -2.11830        1.02340
