41

C          4.79140        1.93070       -0.09020
C          4.34270        0.51100        0.26170
C          5.42580       -0.50320       -0.14380
N          3.05550        0.23830       -0.40390
C          2.35230       -0.91210        0.18170
C          0.90290       -0.96140       -0.32970
C          0.19760       -2.23650        0.15640
C         -1.25180       -2.28180       -0.34800
C         -1.98910       -0.98600       -0.10270
C         -3.38880       -0.96780       -0.13990
C         -4.10510        0.22190        0.08100
C         -5.61360        0.18590       -0.01940
O         -6.06950        1.12160       -0.95860
C         -3.39420        1.41950        0.35410
N         -4.07210        2.66370        0.60900
O         -3.54940        3.74320        0.26190
O         -5.20320        2.70010        1.39050
C         -1.98870        1.39680        0.35710
C         -1.28580        0.21010        0.12230
N          0.14990        0.21240        0.12320
H          4.95690        2.02780       -1.18480
H          5.73400        2.18130        0.44190
H          4.01200        2.65960        0.21870
H          4.21850        0.47450        1.36760
H          5.15450       -1.52240        0.19970
H          5.56050       -0.51630       -1.24660
H          6.39480       -0.23710        0.32990
H          3.21640        0.05570       -1.42310
H          2.86980       -1.85500       -0.10200
H          2.33500       -0.83710        1.29220
H          0.91510       -0.97040       -1.44260
H          0.73750       -3.13590       -0.21230
H          0.19720       -2.26310        1.26900
H         -1.77450       -3.11420        0.17170
H         -1.26210       -2.49780       -1.43820
H         -3.92090       -1.88920       -0.34630
H         -5.98150       -0.82770       -0.29880
H         -6.05790        0.41070        0.97140
H         -5.83380        0.76150       -1.85360
H         -1.43620        2.30780        0.55170
H          0.65800        1.08090        0.40800
