40

C         -4.44470       -2.99290       -0.56410
C         -3.22890       -2.11450       -0.59020
C         -2.30950       -2.18990       -1.64670
C         -1.17990       -1.36640       -1.65990
C         -0.95120       -0.45040       -0.61640
N          0.21920        0.40120       -0.61210
C          1.51790       -0.10300       -1.08960
C          1.92280       -1.36850       -0.33160
N          3.18710       -1.88400       -0.85270
C          4.01600       -2.14540        0.30650
C          3.44300       -1.31960        1.42930
N          2.04600       -1.09330        1.09930
C          0.10520        1.77180       -0.17480
C         -0.93510        2.58330       -0.65920
C         -1.05550        3.90810       -0.23130
C         -0.14200        4.43450        0.68510
C          0.89670        3.63460        1.17950
O          1.81080        4.14620        2.09780
C          1.01810        2.30820        0.75060
C         -1.87660       -0.38200        0.44060
C         -3.00510       -1.20590        0.45260
H         -4.48670       -3.65790       -1.45290
H         -4.42790       -3.62590        0.34810
H         -5.35930       -2.36350       -0.55210
H         -2.46600       -2.88400       -2.46320
H         -0.49750       -1.43920       -2.49490
H          1.45650       -0.32090       -2.17590
H          2.31420        0.66410       -0.97050
H          3.96210       -3.22680        0.55800
H          5.06940       -1.86300        0.09630
H          3.96290       -0.33830        1.48080
H          3.55100       -1.83820        2.40820
H          1.47140       -1.81860        1.58790
H         -1.64710        2.18980       -1.37370
H         -1.85760        4.52760       -0.61110
H         -0.24290        5.46170        1.01160
H          1.75000        5.10190        2.42900
H          1.81440        1.69470        1.15140
H         -1.71740        0.30260        1.26400
H         -3.70390       -1.13810        1.27740
