45

C          5.07680        0.42140        1.41940
N          3.77210       -0.25810        1.36450
C          3.97470       -1.71260        1.49170
C          3.07420        0.07400        0.10270
C          1.55610       -0.07260        0.27030
C          0.81220        0.37700       -0.99410
N         -0.64460        0.22850       -0.82890
C         -1.24320       -1.06210       -0.56290
C         -0.79760       -2.17520       -1.30570
C         -1.31870       -3.44770       -1.08270
C         -2.30240       -3.63820       -0.12040
C         -2.77150       -2.55590        0.62060
C         -2.25550       -1.25880        0.42950
C         -2.89940       -0.17020        1.27740
C         -2.15150        1.15730        1.39390
C         -2.19540        1.89100        0.08770
C         -2.95680        3.06200       -0.06340
C         -2.99120        3.72230       -1.29500
C         -2.26490        3.22100       -2.37820
C         -1.50230        2.05940       -2.23070
C         -1.47150        1.38750       -0.99910
H          5.60800        0.16450        2.36150
H          5.71500        0.13800        0.55240
H          4.93330        1.52330        1.42080
H          4.47540       -1.94590        2.45620
H          4.59730       -2.11020        0.65910
H          3.00180       -2.24490        1.50210
H          3.43090       -0.56480       -0.73770
H          3.27440        1.13230       -0.18290
H          1.30330       -1.13120        0.48400
H          1.22410        0.54830        1.12980
H          1.16040       -0.20410       -1.87260
H          1.06950        1.44160       -1.19360
H         -0.05290       -2.06220       -2.08030
H         -0.96300       -4.28800       -1.66510
H         -2.71130       -4.62650        0.04640
H         -3.55130       -2.73230        1.35220
H         -3.02170       -0.55990        2.31250
H         -3.92340        0.02180        0.88720
H         -2.63700        1.76440        2.18930
H         -1.10180        0.98710        1.71390
H         -3.52620        3.46020        0.76710
H         -3.58030        4.62300       -1.40960
H         -2.28940        3.73490       -3.33040
H         -0.93480        1.68100       -3.07160
