33

O          5.69490       -1.41240       -1.37190
C          5.49010       -1.01950       -0.19330
O          5.62600       -1.91870        0.86040
C          5.08740        0.40380        0.06500
C          3.60040        0.51630        0.43810
C          2.65020        0.24470       -0.70840
O          3.11360        0.00550       -1.85790
C          1.17410        0.26360       -0.51150
C          0.60200        0.58720        0.73400
C         -0.78580        0.60010        0.89950
C         -1.63770        0.28950       -0.17340
C         -3.11250        0.30280        0.00400
C         -3.73290        1.31070        0.76670
C         -5.12140        1.32090        0.93150
C         -5.90490        0.32780        0.33980
C         -5.30170       -0.67770       -0.41870
C         -3.91370       -0.69240       -0.58780
C         -1.07020       -0.03350       -1.41700
C          0.31720       -0.04540       -1.58410
H          5.46770       -1.63050        1.81850
H          5.69780        0.79120        0.90870
H          5.31110        1.03840       -0.82060
H          3.41590        1.54890        0.80490
H          3.38110       -0.18640        1.27120
H          1.21850        0.83170        1.58810
H         -1.19230        0.83680        1.87480
H         -3.14690        2.10020        1.22030
H         -5.59040        2.10190        1.51610
H         -6.97950        0.33750        0.46900
H         -5.90970       -1.44900       -0.87370
H         -3.46610       -1.49110       -1.16570
H         -1.70010       -0.26030       -2.26810
H          0.71770       -0.29620       -2.55840
