67

C          7.43580        0.59800       -1.93220
C          7.88230       -0.85790       -1.84750
N          7.03490       -1.60210       -0.91880
C          7.11040       -1.43000        0.50370
O          7.99920       -0.69270        1.01030
C          6.10580       -2.09460        1.39900
C          4.96200       -1.14160        1.77020
C          4.08780       -0.78180        0.56200
C          2.94780        0.10160        0.98830
C          1.66820       -0.26450        0.82220
C          0.53170        0.64650        1.19980
C         -0.01910        1.38800       -0.03510
C          0.97030        2.41890       -0.61620
O          1.75980        1.86400       -1.64000
C          0.13560        3.60980       -1.11860
C         -1.32640        3.29840       -0.77830
O         -2.03430        2.88970       -1.92680
C         -1.27020        2.20540        0.29790
C         -2.51640        1.34850        0.34570
C         -3.27720        1.26890        1.44820
C         -4.50410        0.39230        1.49200
O         -5.26720        0.71180        2.62660
C         -4.09500       -1.09160        1.55280
C         -5.30280       -2.04310        1.53870
C         -6.07240       -1.96790        0.24310
C         -7.37100       -1.43070        0.21660
C         -8.07860       -1.35710       -0.98720
C         -7.49880       -1.82200       -2.17060
C         -6.21060       -2.36320       -2.15220
C         -5.49910       -2.43850       -0.95090
H          8.06030        1.13630       -2.67580
H          6.37300        0.65190       -2.25040
H          7.54650        1.09820       -0.94750
H          7.80450       -1.31230       -2.85890
H          8.94420       -0.91680       -1.52510
H          6.35250       -2.28920       -1.31170
H          5.69880       -3.00640        0.91080
H          6.61690       -2.42130        2.33050
H          4.32920       -1.64010        2.53740
H          5.38050       -0.21580        2.22420
H          3.71380       -1.71380        0.08330
H          4.68870       -0.22630       -0.18860
H          3.18230        1.06650        1.43000
H          1.42920       -1.21560        0.35440
H          0.84620        1.37010        1.98470
H         -0.27430        0.01890        1.63730
H         -0.27790        0.63660       -0.81730
H          1.64980        2.78760        0.18410
H          1.15230        1.58040       -2.37270
H          0.45110        4.53520       -0.58740
H          0.26820        3.78510       -2.20920
H         -1.82450        4.20460       -0.36900
H         -1.55930        2.11220       -2.32180
H         -1.11500        2.71450        1.27840
H         -2.78630        0.76640       -0.53180
H         -3.02170        1.85640        2.32620
H         -5.10650        0.57330        0.57090
H         -5.73790        1.56280        2.42540
H         -3.42490       -1.33870        0.70070
H         -3.51760       -1.27030        2.48670
H         -5.96200       -1.81390        2.40430
H         -4.94390       -3.08550        1.67990
H         -7.83220       -1.06130        1.12420
H         -9.07670       -0.93850       -1.00270
H         -8.04810       -1.76410       -3.10140
H         -5.76350       -2.72530       -3.06890
H         -4.50360       -2.86450       -0.95050
