41

O          7.69960        1.02890       -0.76380
C          6.95950        0.14720       -0.25390
O          6.16120        0.47250        0.83900
C          6.90950       -1.22620       -0.85560
C          5.84140       -1.31240       -1.94770
N          4.50470       -1.14500       -1.37550
C          3.67070       -0.00880       -1.65920
O          4.14970        0.97800       -2.28270
C          2.26100        0.03830       -1.20180
C          1.62280        1.27780       -1.01620
C          0.29310        1.33620       -0.58830
C         -0.42370        0.15400       -0.34630
N         -1.78540        0.18320        0.09120
N         -2.47490        1.38530        0.30520
C         -3.83690        1.41610        0.74310
C         -4.45790        2.65230        0.93700
C         -5.78740        2.71480        1.35510
C         -6.51390        1.53930        1.59030
O         -7.83750        1.62310        2.02340
C         -5.89940        0.28190        1.40210
C         -6.64980       -0.97810        1.63060
O         -7.89610       -1.01210        1.45160
O         -6.00400       -2.14230        2.04440
C         -4.55940        0.23340        0.97360
C          0.20220       -1.08130       -0.54120
C          1.53220       -1.14220       -0.96800
H          5.54020       -0.21020        1.25680
H          6.70140       -1.97700       -0.06310
H          7.90030       -1.46950       -1.29680
H          5.89830       -2.31080       -2.43150
H          6.04530       -0.55330       -2.73400
H          4.18270       -1.86310       -0.68910
H          2.15600        2.20420       -1.19130
H         -0.17140        2.30350       -0.44730
H         -3.90940        3.56930        0.76070
H         -6.25350        3.68100        1.50080
H         -8.29460        2.51580        2.16860
H         -5.02230       -2.15740        2.29090
H         -4.08410       -0.72130        0.79290
H         -0.34520       -1.99940       -0.36750
H          1.97520       -2.11460       -1.13620
