39

C          3.20180       -3.07880        0.48380
O          3.28240       -1.72900        0.03640
C          2.27030       -0.76750        0.18610
C          1.05770       -1.09030        0.82640
C          0.04010       -0.13900        0.96650
C         -1.25170       -0.49470        1.66280
C         -2.44600       -0.26340        0.76350
C         -3.29030        0.83090        1.00460
N         -4.34980        1.07320        0.19260
C         -4.61890        0.26690       -0.86470
N         -5.73690        0.54130       -1.70550
N         -3.82270       -0.80250       -1.12010
C         -2.74810       -1.09400       -0.33960
N         -1.96120       -2.24550       -0.66090
C          0.24750        1.16100        0.49160
C          1.44830        1.50720       -0.15060
O          1.67490        2.80120       -0.64820
C          0.74140        3.87380       -0.56900
C          2.46260        0.54830       -0.30980
O          3.63370        0.97230       -0.96740
C          4.78460        0.18280       -1.24610
H          2.35850       -3.59820       -0.01860
H          3.07050       -3.10910        1.58600
H          4.14490       -3.60210        0.22510
H          0.89770       -2.08460        1.21990
H         -1.25480       -1.54740        2.01820
H         -1.32740        0.13200        2.57820
H         -3.10110        1.50080        1.83360
H         -6.35350        1.36200       -1.51420
H         -5.94950       -0.07580       -2.52050
H         -1.16980       -2.56920       -0.06600
H         -2.19950       -2.81650       -1.50200
H         -0.53350        1.89730        0.62440
H          0.51770        4.10790        0.49320
H          1.18220        4.77340       -1.04520
H         -0.19250        3.60800       -1.10800
H          4.51620       -0.67000       -1.90440
H          5.24590       -0.17240       -0.30070
H          5.52840        0.80980       -1.77890
