48

C         -0.98650       -3.42090       -0.32560
C         -0.76940       -2.06910       -1.02200
N          0.00110       -1.08710       -0.22030
C          1.39150       -1.52890        0.03090
C          2.34680       -0.33230       -0.04870
C          3.80100       -0.76920        0.16800
C          4.73390        0.41340        0.11510
C          5.37080        0.87300        1.28080
C          6.23780        1.96900        1.22480
C          6.47800        2.61120        0.00710
C          5.85270        2.15790       -1.15740
C          4.98490        1.06260       -1.10620
C         -0.68160       -0.66250        1.02540
C         -1.89800        0.24040        0.73220
C         -3.23030       -0.46990        1.01540
C         -4.39850        0.42190        0.68290
C         -5.19430        0.96820        1.70460
C         -6.27970        1.79130        1.38810
C         -6.58080        2.07180        0.05250
C         -5.79780        1.52860       -0.96950
C         -4.71140        0.70530       -0.65780
H         -1.69620       -3.32650        0.52070
H         -1.42710       -4.13600       -1.05170
H         -0.02940       -3.84680        0.03880
H         -1.75270       -1.64190       -1.30720
H         -0.24030       -2.24780       -1.98370
H          1.72060       -2.26770       -0.73510
H          1.47980       -2.02540        1.02430
H          2.07710        0.42020        0.72280
H          2.24260        0.14250       -1.04880
H          3.88220       -1.27980        1.15300
H          4.09950       -1.50260       -0.61280
H          5.19380        0.38810        2.23270
H          6.72340        2.32050        2.12590
H          7.14950        3.45910       -0.03420
H          6.04140        2.65440       -2.10050
H          4.51140        0.71830       -2.01730
H          0.01940       -0.06210        1.64530
H         -0.95140       -1.53370        1.65940
H         -1.86480        0.60010       -0.31950
H         -1.84380        1.14260        1.38160
H         -3.31250       -1.40400        0.42210
H         -3.26050       -0.75960        2.08890
H         -4.97320        0.76220        2.74450
H         -6.88780        2.21180        2.17860
H         -7.42150        2.70880       -0.19030
H         -6.03340        1.74420       -2.00360
H         -4.11600        0.28600       -1.45950
