104

C         13.89580        0.77580        0.78100
O         12.61700        1.38940        0.67300
C         11.42870        0.65410        0.65100
O         11.45580       -0.60570        0.72490
N         10.17880        1.34610        0.54090
C          8.89460        0.63300        0.49330
C          8.63100       -0.04520        1.82370
O          8.75190        0.63230        2.88110
N          8.29700       -1.44720        1.92480
C          8.29380       -2.13800        3.20420
C          8.26810       -3.62360        2.87740
C          7.78880       -3.72590        1.43390
C          8.05500       -2.35370        0.80580
C          6.87810       -1.90060       -0.01470
N          5.67460       -1.59650        0.51570
C          4.93060       -1.22060       -0.54640
C          3.52240       -0.76730       -0.44110
C          2.90450       -0.69170        0.81890
C          1.58010       -0.26240        0.93830
C          0.84190        0.10260       -0.20010
C         -0.56550        0.56040       -0.07350
C         -1.03970        1.63530       -0.84400
C         -2.36370        2.06670       -0.72430
C         -3.24600        1.43130        0.16720
C         -4.65320        1.88670        0.29260
C         -5.16810        3.10810       -0.10090
N         -6.48570        3.15000        0.17770
C         -6.74660        1.94510        0.72630
C         -8.11320        1.54730        1.21640
C         -8.18860        1.60850        2.74230
C         -8.03760        0.16890        3.22410
C         -8.41990       -0.70980        2.03970
N         -8.39570        0.15790        0.87250
C         -8.58750       -0.35100       -0.46400
O         -8.50010       -1.59290       -0.65580
C         -8.92530        0.57290       -1.62210
N         -8.48760        0.04910       -2.93030
C         -8.93000       -1.15250       -3.58380
O         -8.57770       -1.36370       -4.77630
O         -9.71790       -2.09310       -2.91510
C        -10.17880       -3.28920       -3.53100
C        -10.40580        1.05810       -1.61090
C        -10.64420        2.13070       -2.68330
C        -11.45580       -0.05480       -1.73190
N         -5.65510        1.15960        0.81900
C         -2.77060        0.35620        0.93800
C         -1.44590       -0.07350        0.81950
C          1.45850        0.02720       -1.46060
C          2.78290       -0.40310       -1.58060
C          5.69800       -1.30610       -1.69500
N          6.92060       -1.73630       -1.35020
C          7.71320        1.56030        0.07440
C          7.88730        2.05770       -1.36810
C          7.46480        2.74700        1.02340
H         14.06500        0.09530       -0.08020
H         14.67870        1.56160        0.77780
H         13.96390        0.20350        1.73040
H         10.22000        2.38260        0.42980
H          8.98440       -0.14070       -0.29490
H          9.20840       -1.88980        3.78610
H          7.38900       -1.84680        3.78030
H          7.59730       -4.17810        3.56910
H          9.29670       -4.03990        2.95550
H          6.70400       -3.97660        1.43470
H          8.33440       -4.52740        0.88970
H          8.96950       -2.41580        0.17570
H          3.44670       -0.95970        1.71720
H          1.13930       -0.19830        1.92530
H         -0.38200        2.15410       -1.53020
H         -2.69490        2.89100       -1.34140
H         -4.62350        3.92900       -0.54680
H         -8.88220        2.22190        0.78460
H         -9.19020        1.98720        3.04410
H         -7.41400        2.26950        3.19130
H         -8.68560       -0.03290        4.10450
H         -6.97690       -0.01840        3.50180
H         -9.44300       -1.12320        2.17390
H         -7.68960       -1.54000        1.92280
H         -8.32050        1.48890       -1.45580
H         -7.80160        0.63510       -3.45910
H        -10.78340       -3.86460       -2.80040
H        -10.81310       -3.04400       -4.40910
H         -9.31500       -3.90910       -3.85170
H        -10.58600        1.54680       -0.62890
H        -10.51070        1.70690       -3.70160
H         -9.93340        2.97390       -2.54940
H        -11.67590        2.53430       -2.59890
H        -11.53430       -0.42110       -2.77590
H        -12.45290        0.34430       -1.44740
H        -11.22550       -0.89740       -1.04740
H         -5.61490        0.18820        1.19820
H         -3.41330       -0.14920        1.64580
H         -1.11440       -0.91310        1.41760
H          0.91020        0.28440       -2.35830
H          3.21800       -0.45190       -2.56880
H          5.40470       -1.06570       -2.70730
H          7.73370       -1.89500       -1.98570
H          6.78590        0.94960        0.08620
H          8.01520        1.19760       -2.05960
H          8.77030        2.72480       -1.45650
H          6.98500        2.62030       -1.69030
H          8.35000        3.40940        1.10080
H          6.61340        3.35550        0.65010
H          7.18480        2.39090        2.03510
