44

C          6.36140       -1.66500        1.19610
C          5.88800       -0.27130        1.59970
C          4.45450       -0.04430        1.19350
C          3.44510        0.04900        2.16340
C          2.11750        0.26510        1.78330
C          1.77180        0.38710        0.42610
C          0.35570        0.62290        0.04700
O         -0.39730        1.22900        0.85800
C         -0.20540        0.18090       -1.29030
C         -0.37560        1.38670       -2.22040
C         -1.50640       -0.63780       -1.12510
N         -2.60110        0.17100       -0.53410
C         -3.26450       -0.54840        0.58110
C         -4.59580        0.10740        0.95990
C         -5.58890        0.05800       -0.21460
C         -4.88710       -0.01880       -1.58130
C         -3.54030        0.71690       -1.55350
C          2.78980        0.31090       -0.54260
C          4.11720        0.09580       -0.16120
H          7.40820       -1.81400        1.53510
H          5.72070       -2.43980        1.66890
H          6.32830       -1.78520        0.09250
H          6.53450        0.49540        1.12060
H          6.00540       -0.16460        2.70020
H          3.68280       -0.05010        3.21530
H          1.35720        0.32490        2.55240
H          0.51680       -0.50930       -1.77680
H         -0.76350        1.05790       -3.20760
H          0.60590        1.88010       -2.38530
H         -1.07100        2.13320       -1.78180
H         -1.25410       -1.51280       -0.48180
H         -1.80590       -1.07550       -2.10410
H         -2.59590       -0.53690        1.46880
H         -3.45760       -1.61200        0.31000
H         -4.40580        1.16580        1.24450
H         -5.03210       -0.40930        1.84190
H         -6.23300        0.96370       -0.17850
H         -6.25230       -0.82740       -0.10440
H         -5.54190        0.42530       -2.36200
H         -4.70990       -1.08270       -1.85280
H         -3.72690        1.78670       -1.31710
H         -3.10620        0.70200       -2.57660
H          2.57220        0.44210       -1.59380
H          4.88530        0.04770       -0.92320
