26

N         -3.19930        1.30590        1.26910
C         -2.79210        0.41960        0.41450
N         -3.73380       -0.17220       -0.49010
N         -1.39600        0.05270        0.37310
C         -0.99680       -1.23200       -0.22890
C          0.30460       -1.74980        0.38190
C          1.36480       -0.69660        0.28280
C          2.68750       -1.03180       -0.04650
C          3.66610       -0.03660       -0.11520
C          3.33090        1.29400        0.14700
C          2.01450        1.63450        0.47100
C          1.02050        0.64420        0.52520
C         -0.39810        1.01370        0.88730
H         -4.19990        1.60040        1.32340
H         -4.75010        0.05930       -0.42500
H         -3.42520       -0.79430       -1.26860
H         -1.77980       -2.00030       -0.04690
H         -0.87540       -1.10280       -1.32650
H          0.13560       -1.98830        1.45440
H          0.61400       -2.68190       -0.13940
H          2.96220       -2.06120       -0.24080
H          4.68620       -0.29770       -0.36570
H          4.09200        2.06220        0.10020
H          1.76880        2.66930        0.67520
H         -0.48000        1.06880        1.99380
H         -0.62130        2.02090        0.47080
