23

C         -3.24100       -1.04170        0.32220
C         -1.77530       -0.82060        0.09910
N         -1.07000       -1.76700       -0.57050
C          0.25500       -1.64050       -0.82650
C          0.96010       -0.49730       -0.41130
C          2.44320       -0.37490       -0.70280
O          2.83220       -1.21370       -1.75710
C          0.26570        0.48480        0.34320
C          0.96000        1.72100        0.87880
O          0.74560        2.80710        0.01970
C         -1.11850        0.33290        0.57120
O         -1.81320        1.33030        1.26390
H         -3.82380       -0.22720       -0.15700
H         -3.45840       -1.06840        1.41070
H         -3.56210       -2.00810       -0.12170
H          0.75240       -2.43910       -1.36020
H          3.00940       -0.64280        0.21670
H          2.68670        0.67140       -0.98730
H          3.81370       -1.10080       -1.85310
H          0.55190        1.97710        1.87940
H          2.04710        1.56010        1.04440
H          1.34430        2.67590       -0.76070
H         -2.80490        1.28150        1.45900
