55

C         -1.01510       -2.43050       -0.30870
C         -1.86810       -1.21680       -0.49580
N         -3.15140       -1.25080       -0.28760
N         -3.71990        0.01870       -0.47710
C         -5.11510        0.31020       -0.27850
C         -5.72460        1.40320       -0.91230
C         -7.07990        1.67100       -0.71410
C         -7.85820        0.85110        0.11820
C         -9.31940        1.16510        0.30580
C         -7.26090       -0.27050        0.73980
C         -8.05730       -1.18380        1.63490
C         -5.89360       -0.52580        0.53680
C         -2.66580        0.91500       -0.80220
O         -2.77780        2.16250       -0.93430
C         -1.43900        0.15430       -0.84930
N         -0.25420        0.66180       -1.02770
N          0.94140       -0.07400       -1.07980
C          2.21360        0.59030       -0.99520
C          2.29800        1.97190       -1.24190
C          3.52860        2.62520       -1.21190
C          4.69440        1.91170       -0.94380
C          4.64280        0.53230       -0.68840
C          5.90020       -0.20210       -0.40460
C          6.20890       -1.38110       -1.10230
C          7.39740       -2.06450       -0.84040
C          8.29230       -1.57840        0.11510
C          8.00710       -0.39610        0.82050
C          8.95270        0.12420        1.83290
O         10.02750       -0.48810        2.07730
O          8.66420        1.29700        2.52620
C          6.80770        0.28760        0.55160
C          3.39460       -0.12990       -0.68700
O          3.35170       -1.48310       -0.33590
H         -1.62530       -3.27180        0.08340
H         -0.58720       -2.74620       -1.28220
H         -0.20780       -2.21730        0.42240
H         -5.16500        2.03990       -1.58250
H         -7.52330        2.52090       -1.21830
H         -9.55970        1.22950        1.38760
H         -9.59270        2.13590       -0.15990
H         -9.93590        0.36930       -0.16190
H         -7.46430       -2.06840        1.95060
H         -8.37160       -0.63340        2.54620
H         -8.95650       -1.55330        1.09910
H         -5.42880       -1.37420        1.02400
H          0.91960       -1.07600       -1.35350
H          1.41200        2.54690       -1.47810
H          3.58050        3.68790       -1.41130
H          5.64260        2.43540       -0.94600
H          5.53630       -1.76450       -1.85960
H          7.62820       -2.97210       -1.38320
H          9.20770       -2.12670        0.29940
H          9.30480        1.66170        3.22110
H          6.56940        1.19540        1.09270
H          2.49410       -1.99700       -0.18680
