52

C         -3.35810        1.68980       -3.20110
C         -3.67080        1.06050       -1.88490
N         -4.77410        1.44620       -1.19590
C         -5.09060        0.89650        0.00650
C         -6.33700        1.36260        0.69900
C         -4.24000       -0.08090        0.56860
C         -3.11570       -0.48720       -0.17760
N         -2.85940        0.09900       -1.37790
N         -2.22840       -1.50490        0.33410
C         -1.17100       -2.06730       -0.52120
C          0.09660       -1.23950       -0.51170
C          1.15850       -1.63910       -1.33870
C          2.35050       -0.91090       -1.36920
C          2.50650        0.22550       -0.56210
C          3.76190        1.00730       -0.60630
C          3.69460        2.34060       -1.04710
C          4.85460        3.10180       -1.19080
C          6.09700        2.54240       -0.89970
C          6.18360        1.22480       -0.44720
C          5.02500        0.44350       -0.27770
C          5.17130       -0.92270        0.28340
N          4.20530       -1.59410        0.94420
N          4.76530       -2.73690        1.30480
N          6.01880       -2.75340        0.88780
N          6.31540       -1.63500        0.25000
C          1.44640        0.63730        0.25770
C          0.25350       -0.09010        0.28930
C         -2.32940       -1.89120        1.71910
O         -1.57610       -2.78340        2.19510
C         -3.28020       -1.17110        2.62610
C         -4.55500       -0.77870        1.87460
H         -2.42710        1.26050       -3.62890
H         -4.19490        1.50960       -3.90780
H         -3.22100        2.78310       -3.06730
H         -6.06930        1.91880        1.62170
H         -6.91950        2.03970        0.03850
H         -6.97900        0.49400        0.95670
H         -0.92910       -3.10370       -0.20120
H         -1.54290       -2.14840       -1.56600
H          1.06100       -2.51710       -1.96550
H          3.15330       -1.23310       -2.02120
H          2.74020        2.78520       -1.30320
H          4.79060        4.12470       -1.53870
H          6.99590        3.13390       -1.01640
H          7.16020        0.82330       -0.20630
H          6.68550       -3.54070        1.04520
H          1.54770        1.51790        0.88040
H         -0.53730        0.25440        0.94140
H         -2.77980       -0.25700        3.01250
H         -3.54740       -1.81710        3.49040
H         -5.15460       -0.12870        2.54520
H         -5.15150       -1.69070        1.65530
