43

C         -1.04580       -2.80720       -1.06900
O         -1.25810       -2.24790        0.22410
C         -1.78190       -0.96330        0.42240
C         -3.08380       -0.62900       -0.03440
C         -3.97050       -1.64780       -0.69970
C         -3.52060        0.69340        0.12700
C         -2.73070        1.63660        0.74470
C         -1.46140        1.32660        1.24850
O         -0.66370        2.28690        1.87350
C         -0.99060        0.00130        1.10320
C          0.39340       -0.36290        1.58770
C          1.39410       -0.15460        0.47650
C          2.50540        0.61200        0.56480
C          2.86590        1.35690        1.82780
C          3.41480        0.72450       -0.64030
C          4.25430       -0.55000       -0.81360
C          5.18810       -0.48490       -1.99230
O          5.23040        0.53220       -2.73530
O          6.02100       -1.56330       -2.27320
C         -3.48350        2.87400        0.72100
O         -3.11490        3.98470        1.18290
O         -4.70450        2.66900        0.09820
C         -4.82530        1.30570       -0.30950
H         -1.28620       -2.07740       -1.87190
H         -1.67620       -3.71190       -1.18940
H          0.02040       -3.09770       -1.16660
H         -5.04280       -1.41290       -0.53860
H         -3.76860       -1.66270       -1.79070
H         -3.79540       -2.65830       -0.27550
H         -0.95320        3.24670        1.99930
H          0.63640        0.21150        2.50410
H          0.42460       -1.43070        1.89060
H          1.19690       -0.67840       -0.45580
H          2.97760        0.64210        2.67000
H          3.82800        1.89950        1.71880
H          2.07860        2.10110        2.06830
H          2.80160        0.90390       -1.55130
H          4.09580        1.59590       -0.52790
H          4.85880       -0.71660        0.10420
H          3.58210       -1.42410       -0.95100
H          6.01080       -2.39570       -1.69580
H         -4.94070        1.24360       -1.41210
H         -5.68070        0.82910        0.21370
