50

C          5.94410        1.97620       -0.14800
O          5.33930        0.76470       -0.58870
C          4.06080        0.32700       -0.20660
C          3.25070        1.06570        0.67070
C          1.97700        0.60700        1.03380
C          1.47320       -0.59290        0.47840
C          2.31370       -1.35060       -0.36240
C          3.59420       -0.88830       -0.71890
O          4.43700       -1.61240       -1.57830
C          4.10120       -2.85650       -2.18460
C          0.10790       -1.11370        0.93900
C         -0.65250       -2.00920       -0.06540
C         -1.22010       -1.17330       -1.17040
O         -1.03540       -1.47770       -2.33910
C         -2.02760        0.04430       -0.80900
C         -3.42660       -0.37730       -0.29240
C         -4.48000        0.75870       -0.33010
C         -5.66730        0.40550        0.57550
C         -4.98240        1.02100       -1.75900
C         -1.23100        0.85170        0.23700
N         -0.78150       -0.00460        1.36640
C         -0.14200        0.78470        2.43470
C          1.15270        1.46530        1.96450
H          6.05770        1.96660        0.95660
H          5.32950        2.84610       -0.46220
H          6.94950        2.06730       -0.60750
H          3.60400        2.00310        1.08020
H          1.99050       -2.30580       -0.73580
H          4.94720       -3.18960       -2.81990
H          3.20120       -2.73920       -2.82460
H          3.91980       -3.62520       -1.40410
H          0.30850       -1.76060        1.82250
H         -1.50300       -2.48300        0.47060
H         -0.04620       -2.84890       -0.45600
H         -2.13670        0.67070       -1.71920
H         -3.32120       -0.75430        0.74910
H         -3.80730       -1.23170       -0.89640
H         -4.03830        1.69980        0.05910
H         -5.32510        0.27690        1.62470
H         -6.15150       -0.53610        0.23740
H         -6.42050        1.22220        0.56120
H         -5.41820        0.09820       -2.19860
H         -5.76270        1.81180       -1.75080
H         -4.16010        1.37590       -2.41210
H         -0.36320        1.31580       -0.28080
H         -1.85330        1.68660        0.62130
H         -0.84980        1.55350        2.81480
H          0.08740        0.11960        3.29670
H          1.75840        1.73260        2.85770
H          0.89800        2.41260        1.44200
