52

C         -2.99250        3.19130       -0.26520
C         -3.01250        2.01860        0.01590
C         -3.09660        0.58270        0.39100
O         -4.39900        0.13870        0.08990
C         -2.89100        0.50880        1.90920
C         -1.40850        0.27520        2.09930
C         -1.03610       -0.70890        0.99520
C          0.49850       -0.74570        0.73570
C          0.92020       -2.07220        0.04680
C          2.45090       -2.23320        0.04440
C          3.12850       -0.90750       -0.19510
C          4.30310       -0.64120        0.40070
C          4.87320        0.71500        0.40100
O          5.99540        0.92120        0.93420
C          4.09050        1.86310       -0.15980
C          3.19390        1.37670       -1.29950
C          2.31200        0.17250       -0.88430
C          1.06460        0.52340       -0.00330
C         -0.01380        1.19550       -0.83460
C          0.03060        2.51490       -1.07970
C         -1.14480        0.35040       -1.36970
C         -1.96040       -0.35840       -0.22770
C         -2.55530       -1.67130       -0.86670
C         -3.29930       -2.64060        0.06910
H         -2.97330        4.22000       -0.51210
H         -4.56060        0.29810       -0.87760
H         -3.22470        1.42230        2.45210
H         -3.44800       -0.35500        2.33490
H         -1.19480       -0.13920        3.10900
H         -0.86530        1.23820        1.97830
H         -1.30790       -1.69810        1.41510
H          0.98110       -0.77510        1.74080
H          0.55510       -2.09440       -0.99980
H          0.47480       -2.94430        0.57340
H          2.75380       -2.95290       -0.74560
H          2.76010       -2.64910        1.02940
H          4.83350       -1.42480        0.92920
H          4.78540        2.63900       -0.54780
H          3.47680        2.31820        0.64550
H          3.84960        1.05470       -2.13940
H          2.58960        2.21460       -1.69310
H          1.93850       -0.27050       -1.83530
H          1.38040        1.23500        0.79170
H          0.80060        3.14120       -0.64170
H         -0.70470        2.99260       -1.71770
H         -1.82460        0.93070       -2.03120
H         -0.67380       -0.39480       -2.04480
H         -3.23890       -1.39140       -1.69700
H         -1.74480       -2.26210       -1.34290
H         -3.90940       -2.12270        0.83150
H         -2.58410       -3.31680        0.58210
H         -3.97580       -3.28240       -0.53390
