24

N         -4.67740        0.10240       -0.49390
C         -3.28100       -0.01230       -0.20780
C         -2.83090       -0.92210        0.75710
C         -1.46590       -1.03560        1.03660
C         -0.52860       -0.23380        0.36030
C          0.91710       -0.36840        0.66160
O          1.34590       -1.44150        1.16840
N          1.83450        0.70700        0.39930
C          3.28130        0.55230        0.55210
C          3.86870       -0.28260       -0.55080
O          3.15260       -0.69090       -1.50390
O          5.22270       -0.60140       -0.53340
C         -0.98690        0.67000       -0.61620
C         -2.35270        0.78060       -0.89450
H         -5.02220        0.77680       -1.21300
H         -5.37680       -0.48600        0.01160
H         -3.53760       -1.54350        1.29290
H         -1.14420       -1.74380        1.79030
H          1.46730        1.66230        0.19180
H          3.50650        0.08500        1.53460
H          3.76400        1.55270        0.53090
H          5.82470       -0.28300        0.21660
H         -0.29440        1.27570       -1.18500
H         -2.68680        1.48010       -1.65050
