29

N         -5.21990       -0.55600        0.34000
C         -4.42620       -0.46660       -0.84410
O         -4.97090       -0.61660       -1.97000
C         -2.98310       -0.20190       -0.76390
N         -2.18010       -0.11150       -1.84810
C         -0.97620        0.12810       -1.29330
N         -1.06000        0.18310        0.04800
C          0.03640        0.37030        1.00080
O          0.87310        1.42060        0.55810
C          2.19620        0.93520        0.55850
C          3.00180        1.59000       -0.56940
O          2.38450        1.37040       -1.80780
C          2.14620       -0.58400        0.44470
O          3.24550       -1.18510        1.07740
C          0.86990       -0.90690        1.17550
O          0.23790       -2.03920        0.63410
N         -2.31550       -0.03190        0.39450
H         -6.24460       -0.74440        0.27160
H         -4.79400       -0.43580        1.28560
H         -0.06220        0.24630       -1.85870
H         -0.39320        0.66000        1.98570
H          2.66780        1.21690        1.52810
H          3.06590        2.68420       -0.37620
H          4.03470        1.17590       -0.58090
H          2.95850        1.81510       -2.48420
H          2.06670       -0.91260       -0.61900
H          4.00630       -1.11760        0.44380
H          1.07020       -1.06030        2.26330
H          0.76460       -2.82550        0.93380
