13

N         -1.69980       -0.25550        0.48940
C         -0.55240       -0.19700       -0.41880
C          0.56790       -1.16100        0.01930
O          1.60230       -0.42630        0.66380
N          1.42970        0.85890        0.25640
C          0.16200        1.06990       -0.30420
O         -0.24980        2.18770       -0.71230
H         -1.40100        0.01440        1.45610
H         -2.40670        0.44810        0.17360
H         -0.86790       -0.39370       -1.46700
H          0.99380       -1.67090       -0.87240
H          0.18120       -1.94200        0.70880
H          2.24080        1.46740        0.00740
