65

N         -2.25650       -4.07560       -1.29700
C         -1.68420       -2.73570       -1.16090
C         -2.36250       -1.89820       -0.05480
O         -1.58500       -0.71620        0.13240
C         -2.31620        0.43250        0.55640
O         -1.44530        1.34570        1.19870
C         -0.43160        1.81860        0.32070
C         -0.49170        3.36900        0.29850
N         -1.50280        3.81850       -0.66210
C          0.88540        3.97660       -0.02140
C          1.91550        3.63520        1.08530
N          3.28370        3.71820        0.56490
C          1.66940        2.24760        1.74620
O          0.90640        2.41850        2.91530
C          0.94560        1.26400        0.79190
O          1.75500        1.02480       -0.35100
C          2.53630       -0.14640       -0.20170
O          1.72790       -1.29610       -0.34200
C          2.45130       -2.24350       -1.10000
C          2.51860       -3.57230       -0.33520
O          3.08960       -4.57420       -1.13380
C          3.83680       -1.67600       -1.41100
O          4.24980       -2.03190       -2.70540
C          3.62200       -0.19080       -1.26470
O          3.15020        0.37030       -2.46590
C         -3.46640        0.07810        1.52360
N         -2.94480       -0.62850        2.70180
C         -4.51370       -0.78010        0.76340
O         -5.22000       -1.61770        1.64480
C         -3.86440       -1.63470       -0.35710
O         -3.98520       -0.98240       -1.59740
H         -3.19040       -4.00760       -1.76090
H         -2.38650       -4.50180       -0.35090
H         -0.60780       -2.84450       -0.91330
H         -1.73970       -2.20500       -2.13630
H         -2.30210       -2.48930        0.88580
H         -2.76570        0.93410       -0.33340
H         -0.57310        1.46990       -0.73340
H         -0.79580        3.73120        1.30740
H         -1.16630        3.63070       -1.63500
H         -1.61660        4.85410       -0.56840
H          1.22960        3.59350       -1.00760
H          0.79990        5.08210       -0.10670
H          1.81950        4.40880        1.88110
H          3.44270        4.68260        0.19170
H          3.39800        3.05250       -0.23340
H          2.65520        1.81310        2.03440
H          0.99630        1.58370        3.44550
H          0.74330        0.32130        1.35800
H          3.03340       -0.17630        0.79720
H          1.89400       -2.41020       -2.04940
H          1.48810       -3.88740       -0.06800
H          3.08350       -3.44960        0.61800
H          4.07350       -4.50340       -1.02420
H          4.58450       -2.01550       -0.65450
H          5.20440       -1.76900       -2.77710
H          4.54400        0.32980       -0.91270
H          3.95040        0.62350       -2.99590
H         -3.95600        1.02200        1.85760
H         -3.70610       -0.68980        3.41600
H         -2.20160       -0.04380        3.14800
H         -5.24120       -0.08380        0.28120
H         -5.85110       -1.03870        2.14750
H         -4.39500       -2.61400       -0.40610
H         -4.91870       -1.12070       -1.90650
