63

C         -1.92960       -2.03290        0.68170
C         -2.26240       -0.55350        0.96850
C         -1.01140        0.16200        1.55940
N         -0.29070        0.89190        0.50170
C          1.08340        1.27570        0.90660
C          2.11330        0.53200        0.03600
C          2.09110       -0.98970        0.30000
C          3.06930       -1.72950       -0.57870
C          4.22550       -2.30820       -0.02790
C          5.13250       -2.98630       -0.84800
C          4.89090       -3.09510       -2.22020
C          3.74120       -2.52640       -2.77490
C          2.83200       -1.84650       -1.95890
C          3.49440        1.10290        0.26060
O          4.09990        1.64430       -0.70420
N          4.12100        1.02900        1.55140
C          5.47300        1.53130        1.79260
C          5.50830        3.03070        1.82300
O          4.44670        3.70690        1.74570
O          6.73180        3.67910        1.95370
C         -1.07470        2.05330        0.02660
C         -2.58810        1.75250       -0.04290
C         -2.91430        0.23720       -0.24490
C         -2.32020       -0.16930       -1.62860
C         -4.45280       -0.00870       -0.27350
C         -4.97340       -1.25810       -0.69270
C         -6.34740       -1.50720       -0.70750
C         -7.24460       -0.52130       -0.31000
C         -6.77050        0.72570        0.10010
O         -7.65870        1.72440        0.49440
C         -5.39470        0.98090        0.11710
H         -1.50280       -2.51120        1.58910
H         -2.83630       -2.61250        0.43570
H         -1.18690       -2.13160       -0.13550
H         -3.00940       -0.57080        1.79470
H         -1.32630        0.87170        2.35910
H         -0.34040       -0.57620        2.05290
H          1.25680        2.36940        0.77920
H          1.27410        1.06790        1.98410
H          1.83230        0.70560       -1.02770
H          2.30240       -1.18980        1.37300
H          1.07750       -1.39150        0.09650
H          4.42960       -2.22710        1.03260
H          6.02370       -3.42670       -0.41970
H          5.59420       -3.62050       -2.85340
H          3.55410       -2.61290       -3.83740
H          1.94300       -1.41330       -2.40050
H          3.62920        0.54460        2.33500
H          5.83930        1.15080        2.76980
H          6.15690        1.15700        1.00100
H          6.78360        4.69040        1.98180
H         -0.92710        2.93470        0.69220
H         -0.71440        2.33270       -0.98740
H         -3.00900        2.08860        0.93000
H         -3.04870        2.36900       -0.84670
H         -2.50260       -1.23040       -1.88280
H         -2.77420        0.44680       -2.43470
H         -1.22140       -0.03080       -1.67140
H         -4.33440       -2.05380       -1.03560
H         -6.71750       -2.47060       -1.03470
H         -8.30770       -0.72500       -0.32620
H         -8.66070        1.57320        0.49400
H         -5.09780        1.96530        0.43990
