51

C         -1.23670        0.85490       -0.99910
N         -1.06580       -0.59170       -0.75810
C          0.05700       -1.11720       -1.56460
C          1.37790       -0.67940       -0.98560
C          1.73650       -1.06430        0.31160
C          2.95610       -0.66020        0.86120
C          3.85660        0.14350        0.12220
C          5.21200        0.61540        0.68830
C          5.47340        0.11880        2.13070
C          5.25150        2.15900        0.70970
C          6.35540        0.08550       -0.20410
C          3.47840        0.51890       -1.18660
C          2.25840        0.11240       -1.73190
C         -2.31420       -1.31620       -1.07840
C         -3.35860       -1.08070       -0.00290
C         -3.13640       -1.69790        1.24100
C         -4.05730       -1.57750        2.27870
C         -5.22060       -0.83550        2.10130
C         -5.46780       -0.18830        0.88350
C         -6.63790        0.57180        0.72820
C         -6.88790        1.24320       -0.46710
C         -5.97140        1.17030       -1.51370
C         -4.80290        0.41650       -1.37970
C         -4.53280       -0.29230       -0.18600
H         -0.30740        1.40540       -0.74110
H         -1.49470        1.06150       -2.06160
H         -2.03560        1.26460       -0.34600
H         -0.04330       -0.80430       -2.62940
H          0.05920       -2.22980       -1.55610
H          1.06650       -1.67860        0.90120
H          3.17400       -0.98780        1.86640
H          6.45800        0.48020        2.49980
H          5.49030       -0.99180        2.17050
H          4.69630        0.50030        2.82800
H          5.17940        2.58380       -0.31320
H          4.40830        2.55860        1.31380
H          6.20330        2.52310        1.15420
H          7.34550        0.37730        0.20860
H          6.31540       -1.02370       -0.26500
H          6.29240        0.49360       -1.23450
H          4.12690        1.13220       -1.79710
H          2.00020        0.42210       -2.73700
H         -2.12800       -2.41370       -1.10000
H         -2.65810       -1.08020       -2.10400
H         -2.24320       -2.28940        1.40430
H         -3.86980       -2.06770        3.22540
H         -5.92490       -0.75930        2.92140
H         -7.35720        0.65120        1.53500
H         -7.79040        1.83020       -0.57910
H         -6.16400        1.70690       -2.43400
H         -4.12210        0.42640       -2.21480
