8

N          1.21880       -0.05100        0.28940
C         -0.03160        0.48670       -0.13760
N         -1.19340       -0.34020       -0.17880
O         -0.11030        1.69620       -0.47950
H          1.29600       -1.05210        0.57510
H          2.07010        0.55290        0.32010
H         -1.14010       -1.34420        0.10230
H         -2.10950        0.05180       -0.49110
