50

O          8.56950        1.12720        2.48700
C          7.35830        1.20400        2.82600
O          7.02170        1.76930        4.05320
C          6.31310        0.69610        1.92290
C          4.95930        0.76870        2.27420
C          3.99630        0.27690        1.39230
O          2.78020        0.34650        1.71750
C          4.39990       -0.28520        0.16190
C          3.48570       -0.80630       -0.78840
O          2.10700       -0.77420       -0.51840
C          1.09240       -1.26660       -1.39080
C         -0.27920       -1.05160       -0.74920
O         -0.33520       -1.75780        0.46340
C         -1.39440       -1.53940       -1.68960
O         -2.68360       -1.31300       -1.11740
C         -3.30520       -0.06170       -0.94890
C         -2.79150        1.10270       -1.55640
C         -3.42200        2.33510       -1.38260
C         -4.57480        2.43140       -0.60700
C         -5.10960        1.29440        0.00170
O         -6.21200        1.41190        0.73560
C         -6.78860        0.38430        1.35130
C         -8.01280        0.61530        2.14450
O         -8.57870       -0.34120        2.73790
O         -8.56100        1.89160        2.24980
C         -6.22920       -0.89610        1.23970
C         -5.07160       -1.07450        0.48120
O         -4.57600       -2.23010        0.38970
C         -4.48210        0.03440       -0.16310
C          3.98190       -1.34880       -1.99140
C          5.35290       -1.37520       -2.24870
C          6.25280       -0.86360       -1.31630
C          5.78930       -0.32020       -0.11620
O          6.66760        0.16190        0.75800
H          7.73780        2.12020        4.67800
H          4.65320        1.20090        3.21970
H          1.25360       -2.35170       -1.57500
H          1.13910       -0.71660       -2.35640
H         -0.39630        0.03990       -0.55930
H         -1.05110       -1.33810        1.00860
H         -1.27660       -2.63300       -1.84640
H         -1.32520       -1.05820       -2.68850
H         -1.90540        1.07020       -2.17340
H         -3.01520        3.22020       -1.85460
H         -5.05610        3.39310       -0.47970
H         -8.14260        2.69190        1.79120
H         -6.68400       -1.74600        1.73500
H          3.31420       -1.75490       -2.73850
H          5.71950       -1.79480       -3.17680
H          7.31470       -0.88930       -1.52670
