26

N         -2.10860       -1.68920       -0.43860
C         -2.08330       -0.56340        0.50170
C         -3.48270       -0.05090        0.76870
O         -3.93620       -0.07340        1.94350
O         -4.28950        0.44570       -0.25360
C         -1.14310        0.57370        0.01310
O         -1.50630        1.01680       -1.27170
C          0.35420        0.27360        0.06410
C          0.88480       -0.99810        0.35680
C          2.26610       -1.20030        0.38300
C          3.14960       -0.14950        0.11990
O          4.51870       -0.42080        0.16260
C          2.63270        1.13230       -0.17580
O          3.45050        2.23060       -0.44930
C          1.24650        1.32710       -0.20010
H         -2.63640       -1.43010       -1.30260
H         -2.62460       -2.48190        0.00830
H         -1.68220       -0.93060        1.47370
H         -3.98340        0.47400       -1.21740
H         -1.30170        1.42730        0.70960
H         -1.18740        0.34150       -1.92610
H          0.25050       -1.84600        0.56610
H          2.65480       -2.18530        0.60990
H          5.23650        0.26760       -0.01180
H          4.45960        2.19540       -0.45700
H          0.86050        2.31390       -0.42780
