45

C          7.68530        2.03410        0.98440
O          7.48760        0.64520        0.74080
C          6.26640        0.07550        0.35110
C          6.21320       -1.30650        0.14450
C          5.02030       -1.92270       -0.24360
C          3.84980       -1.16500       -0.42480
C          2.59200       -1.83350       -0.84390
O          2.66020       -2.93910       -1.44770
C          1.26810       -1.24190       -0.52960
C          0.11220       -1.64730       -1.08560
O          0.11190       -2.68020       -2.02520
C         -1.17440       -1.00730       -0.70940
C         -2.32480       -1.79030       -0.54950
C         -3.54330       -1.20200       -0.20290
C         -3.65430        0.19240       -0.00930
C         -5.01890        0.80260        0.37300
C         -4.96920        2.33970        0.54760
C         -5.49840        0.19470        1.70920
C         -6.05080        0.48950       -0.73230
C         -2.48750        0.97320       -0.18070
C         -1.26960        0.38110       -0.52610
C          3.90760        0.22750       -0.22770
C          5.10230        0.84190        0.15960
H          7.02670        2.37410        1.81140
H          8.74130        2.20410        1.27800
H          7.47380        2.61710        0.06320
H          7.10270       -1.90740        0.28600
H          5.01150       -2.99560       -0.39110
H          1.23910       -0.45660        0.21510
H         -0.73290       -2.97020       -2.50270
H         -2.28000       -2.86510       -0.67430
H         -4.40220       -1.84840       -0.08450
H         -5.97000        2.73770        0.82370
H         -4.66320        2.83630       -0.39860
H         -4.26300        2.62380        1.35750
H         -4.74580        0.37420        2.50730
H         -5.66270       -0.89980        1.62470
H         -6.46080        0.65120        2.02740
H         -5.70030        0.88370       -1.71070
H         -7.03250        0.95620       -0.49900
H         -6.21920       -0.60260       -0.83670
H         -2.49380        2.04560       -0.05690
H         -0.40380        1.01580       -0.66830
H          3.03850        0.85030       -0.39320
H          5.11110        1.91400        0.30110
