48

C         -1.49200        5.09930        0.93590
N         -1.37900        3.74490        0.38970
C         -1.11570        3.57230       -1.03580
C         -0.11320        2.48630       -1.22580
O          0.82300        2.63420       -2.05720
N         -0.24320        1.26710       -0.47320
C         -1.06970        1.21850        0.75910
C         -2.25770        0.25230        0.57240
C         -1.77860       -1.01140       -0.07320
C         -0.59540       -1.12910       -0.78260
N         -0.44750       -2.37700       -1.28290
C         -1.54860       -3.04810       -0.89240
C         -1.87110       -4.37550       -1.17040
C         -3.08870       -4.87510       -0.67190
C         -3.94920       -4.04600        0.08270
C         -3.60100       -2.70880        0.34740
C         -2.38790       -2.24370       -0.15670
C          0.35390        0.01800       -0.99500
C          1.70370       -0.23100       -0.35540
C          1.81590       -0.80440        0.94250
C          3.07670       -1.00180        1.53310
C          4.20000       -0.61400        0.81180
C          4.10500       -0.06160       -0.42280
C          2.87830        0.15080       -1.04450
O          5.37030        0.22530       -0.89740
C          6.31910       -0.17290        0.10200
O          5.52960       -0.70330        1.17590
C         -1.54900        2.57910        1.21730
O         -2.08980        2.68170        2.35220
H         -1.67570        5.08870        2.03050
H         -2.33140        5.63180        0.44120
H         -0.54890        5.65570        0.75100
H         -2.05860        3.27180       -1.53990
H         -0.75720        4.51950       -1.49650
H         -0.43220        0.82390        1.57870
H         -2.70420        0.01620        1.56250
H         -3.03520        0.71200       -0.07530
H          0.34390       -2.73680       -1.86180
H         -1.20800       -5.00250       -1.75220
H         -3.36870       -5.90150       -0.86950
H         -4.88340       -4.44200        0.45900
H         -4.25460       -2.06600        0.92280
H          0.47900        0.10230       -2.09790
H          0.93350       -1.10650        1.49090
H          3.17050       -1.44110        2.51750
H          2.83810        0.59910       -2.02890
H          6.99430       -0.95680       -0.30040
H          6.90010        0.70610        0.45170
