74

C          1.24340       -2.47450       -4.79570
C          1.73530       -1.54730       -3.68230
N          1.35510       -2.03520       -2.33980
C          0.28520       -1.27530       -1.65950
C         -1.02020       -1.20590       -2.48120
C         -2.18760       -0.59020       -1.66380
N         -3.16880       -0.00520       -2.58560
C         -1.69800        0.46090       -0.61520
O         -2.69000        1.45670       -0.40110
C         -3.30390        1.32070        0.86800
O         -3.98310        0.06130        0.95660
C         -5.31120       -0.12960        0.54940
C         -5.87950       -1.52080        0.57580
N         -6.51740       -1.80180        1.85940
C         -6.07310        0.91470        0.19410
C         -5.51050        2.30730        0.13620
C         -4.29990        2.48220        1.07000
N         -4.74350        2.57300        2.46500
C         -0.39550        1.14360       -1.08880
O         -0.05140        2.23280       -0.26550
C          0.77780        0.12880       -1.18960
O          1.38660       -0.00900        0.08770
C          2.80180       -0.04110        0.00350
O          3.26570        1.27610       -0.25710
C          4.67660        1.28600       -0.32070
C          5.28700        1.12570        1.08600
O          6.47160        0.37310        1.01530
C          4.27910        0.46520        2.06500
N          4.96210       -0.08970        3.25470
C          5.48660        0.96610        4.12750
C          3.40300       -0.62070        1.34460
C          4.24030       -1.87960        1.02620
O          2.36600       -1.03820        2.20740
H          1.67640       -3.48960       -4.67050
H          1.56260       -2.07370       -5.78080
H          0.13650       -2.54500       -4.78500
H          1.36990       -0.51920       -3.88420
H          2.84380       -1.50490       -3.73170
H          1.09550       -3.04970       -2.36430
H          0.02610       -1.84960       -0.73960
H         -0.85380       -0.59450       -3.39380
H         -1.31020       -2.22810       -2.80830
H         -2.68190       -1.41650       -1.10210
H         -3.42860       -0.72740       -3.29680
H         -4.05090        0.18580       -2.05820
H         -1.43680       -0.09710        0.31900
H         -2.53380        1.38120        1.67070
H         -5.06060       -2.25270        0.40780
H         -6.61880       -1.65730       -0.24370
H         -5.81430       -1.66440        2.62210
H         -7.28850       -1.11110        2.01090
H         -7.10040        0.75980       -0.11340
H         -6.30340        3.03810        0.40460
H         -5.20100        2.51470       -0.91090
H         -3.79440        3.43820        0.80580
H         -5.09600        1.64310        2.78900
H         -3.91990        2.81710        3.06190
H         -0.58500        1.55690       -2.10500
H         -0.07120        1.92320        0.67760
H          1.47570        0.56590       -1.94120
H          3.09920       -0.70400       -0.84660
H          5.00140        2.25930       -0.74600
H          5.05550        0.50410       -1.01970
H          5.52110        2.14240        1.48100
H          7.15670        0.95730        0.59670
H          3.57860        1.27030        2.39200
H          4.26250       -0.61920        3.82540
H          6.31840        1.50700        3.63070
H          5.89440        0.50800        5.05350
H          4.68670        1.68260        4.41670
H          3.59370       -2.65450        0.56040
H          5.06470       -1.65390        0.31920
H          4.67190       -2.31800        1.95030
H          1.86870       -0.23450        2.51230
