46

C          4.65330       -2.98770       -1.32110
C          3.79670       -2.62910       -0.11780
O          3.02870       -1.46740       -0.41130
C          2.14680       -0.88930        0.50690
O          1.98500       -1.42250        1.63910
C          1.34920        0.31520        0.14450
C          1.77410        1.23070       -0.75680
C          3.11710        1.14270       -1.43530
N          0.93540        2.34810       -1.07930
C         -0.22460        2.68590       -0.30700
C         -0.85410        4.03510       -0.54010
C         -0.69940        1.80580        0.60460
C         -1.91720        2.06880        1.42110
O         -2.03990        1.51220        2.54700
O         -2.94870        2.87700        0.93200
C         -4.13860        3.13410        1.66740
C         -0.02600        0.45190        0.78350
C         -0.93850       -0.64140        0.26120
C         -1.28250       -0.69480       -1.10080
C         -2.12140       -1.70260       -1.57740
C         -2.62700       -2.66790       -0.70450
C         -2.29770       -2.63590        0.66130
N         -2.82080       -3.63290        1.55840
O         -2.53280       -3.61140        2.77320
O         -3.64840       -4.62840        1.09150
C         -1.45080       -1.61630        1.13560
H          5.25640       -3.89240       -1.09630
H          4.00560       -3.19400       -2.19940
H          5.33810       -2.14720       -1.56250
H          3.11860       -3.47800        0.11750
H          4.45490       -2.43290        0.75630
H          3.37070        2.10260       -1.93170
H          3.91780        0.93690       -0.69370
H          3.09750        0.35000       -2.21210
H          1.22790        2.98860       -1.85150
H         -0.17730        4.68830       -1.12940
H         -1.79930        3.91810       -1.11010
H         -1.04610        4.54960        0.42520
H         -4.67500        2.18230        1.86720
H         -3.89130        3.63510        2.62720
H         -4.79700        3.80020        1.07310
H          0.12600        0.32270        1.87790
H         -0.89990        0.04500       -1.79260
H         -2.38090       -1.73600       -2.62770
H         -3.27560       -3.43930       -1.09880
H         -1.18880       -1.57980        2.18550
