51

C          0.72910       -2.83200       -0.27000
C          1.66880       -1.67890        0.12520
C          2.85700       -1.57310       -0.86200
O          3.62260       -2.75030       -0.81010
C          3.73610       -0.38310       -0.53080
C          3.81820        0.70540       -1.41610
C          4.61470        1.81130       -1.10450
C          5.33970        1.84170        0.09400
O          6.13570        2.93880        0.41510
C          5.26450        0.76080        0.97770
C          4.46870       -0.34620        0.66920
N          0.97900       -0.36420        0.23950
C          0.55150        0.04790        1.59140
C         -0.89690       -0.35010        1.88830
C         -1.84470        0.19990        0.81090
C         -3.29750       -0.22460        1.11680
C         -4.28900        0.41770        0.17780
C         -4.53760        1.79940        0.24640
C         -5.45450        2.39500       -0.62510
C         -6.13180        1.61710       -1.56790
C         -5.89500        0.24180       -1.63930
C         -4.97930       -0.35830       -0.76930
C         -1.39660       -0.29010       -0.57820
C          0.07520        0.06020       -0.85160
H          0.33850       -2.70310       -1.30060
H          1.27870       -3.79640       -0.23450
H         -0.11470       -2.91300        0.44160
H          2.09970       -1.95990        1.11190
H          2.44430       -1.46090       -1.89160
H          4.21020       -2.74620       -1.61090
H          3.25980        0.70350       -2.34390
H          4.66620        2.64430       -1.79390
H          6.21110        3.73750       -0.20400
H          5.82310        0.77890        1.90480
H          4.42370       -1.17430        1.36530
H          1.21950       -0.37180        2.37390
H          0.64290        1.15330        1.66870
H         -0.97940       -1.45460        1.95550
H         -1.18100        0.06660        2.87930
H         -1.78440        1.31150        0.83340
H         -3.56310        0.06820        2.15630
H         -3.37520       -1.33360        1.06610
H         -4.02360        2.41320        0.97560
H         -5.64070        3.45970       -0.56880
H         -6.84110        2.07970       -2.24200
H         -6.42070       -0.35970       -2.36950
H         -4.80360       -1.42450       -0.84040
H         -2.01720        0.19430       -1.36270
H         -1.55730       -1.38360       -0.66580
H          0.16100        1.16250       -0.96690
H          0.38540       -0.37800       -1.82270
