27

N         -4.78530        1.48360       -0.09000
C         -3.59120        0.69750       -0.05240
C         -3.67070       -0.70120        0.01840
C         -2.50660       -1.47510        0.05540
C         -1.24950       -0.85480        0.02170
C         -0.06830       -1.60730        0.05760
C          1.17260       -0.95760        0.02250
C          2.37250       -1.68230        0.05700
C          3.59800       -1.00980        0.02080
C          3.63750        0.39070       -0.05000
N          4.89390        1.07270       -0.08680
C          2.43920        1.11900       -0.08470
C          1.20890        0.45310       -0.04880
N          0.04940        1.16310       -0.08260
C         -1.16610        0.55390       -0.04960
C         -2.33560        1.32170       -0.08620
H         -5.72550        1.02930       -0.06530
H         -4.73820        2.52560       -0.14270
H         -4.63560       -1.19170        0.04490
H         -2.58890       -2.55410        0.11000
H         -0.11420       -2.68960        0.11240
H          2.36300       -2.76430        0.11170
H          4.51790       -1.58030        0.04790
H          5.79220        0.54030       -0.06150
H          4.93530        2.11500       -0.13950
H          2.46440        2.20080       -0.13940
H         -2.26890        2.40180       -0.14090
