38

C          1.69770       -3.25710       -0.10470
C          1.80730       -1.98220        0.73320
C          0.88200       -0.84250        0.21540
N          1.37820        0.48050        0.65780
C          2.21180        1.20190       -0.32770
C          3.67100        0.72220       -0.32410
C          2.14690        2.69850       -0.01670
C         -0.56770       -1.04520        0.74700
O         -0.58060       -0.83540        2.14000
C         -1.65110       -0.17310        0.12360
C         -1.41290        0.77660       -0.89040
C         -2.46100        1.53790       -1.41410
C         -3.76570        1.36460       -0.94780
O         -4.78940        2.14060       -1.49050
C         -4.02520        0.41540        0.05200
O         -5.32550        0.23160        0.51990
C         -2.97260       -0.34710        0.57750
H          2.40790       -4.01680        0.28450
H          1.95650       -3.04610       -1.16410
H          0.67470       -3.68210       -0.05410
H          1.57980       -2.22370        1.79350
H          2.86730       -1.66560        0.71670
H          0.85510       -0.90260       -0.89560
H          1.85930        0.42150        1.58690
H          1.81510        1.07020       -1.35730
H          3.74640       -0.27670       -0.79980
H          4.30570        1.41070       -0.92220
H          4.07400        0.67860        0.71010
H          2.57620        2.90670        0.98690
H          2.70970        3.27850       -0.77920
H          1.08980        3.04010       -0.03100
H         -0.87000       -2.09290        0.51110
H         -0.72420       -1.71530        2.57730
H         -0.43200        0.93970       -1.29670
H         -2.25800        2.26480       -2.19060
H         -5.75140        2.05140       -1.18610
H         -5.53940       -0.44730        1.24120
H         -3.18570       -1.08020        1.34640
