30

N          4.44880        1.97560        0.20920
C          3.72730        0.70720        0.18550
C          2.30320        0.92050       -0.34110
C          1.48820       -0.34480       -0.37220
O          1.98680       -1.44110        0.00560
N          0.13090       -0.29190       -0.83360
C         -0.77730       -1.44260       -0.73760
C         -1.43760       -1.48510        0.65350
C         -2.15820       -0.21030        0.99310
C         -3.36400        0.21870        0.48370
N         -3.67930        1.40640        1.03790
C         -2.65260        1.66840        1.87540
N         -1.71540        0.70250        1.87150
C         -1.80490       -1.43200       -1.84180
O         -1.87480       -0.47190       -2.65640
O         -2.68310       -2.50420       -1.96790
H          5.38320        1.80170        0.64530
H          4.63260        2.26590       -0.77900
H          3.68010        0.29820        1.21900
H          4.26760       -0.02030       -0.46170
H          2.35140        1.33370       -1.37160
H          1.78350        1.65910        0.30680
H         -0.26670        0.64830       -1.06100
H         -0.19320       -2.37980       -0.86780
H         -2.14610       -2.33890        0.72100
H         -0.64500       -1.66180        1.41260
H         -3.97940       -0.29860       -0.24010
H         -2.59150        2.56030        2.48480
H         -0.83210        0.67690        2.42790
H         -3.38240       -2.51990       -2.70070
