53

C         -5.25480        2.78890       -1.70490
C         -3.76160        2.68710       -1.99640
O         -3.08870        1.98690       -0.95290
C         -3.18320        0.60240       -0.77120
N         -3.86870       -0.21470       -1.60800
C         -3.68600       -1.42670       -1.05660
C         -4.23680       -2.62500       -1.49770
C         -3.97620       -3.78240       -0.75130
C         -3.16250       -3.72300        0.39760
C         -2.58670       -2.50390        0.81950
C         -1.66320       -2.53030        1.96420
O         -0.51510       -2.02260        1.86970
O         -2.02730       -3.19950        3.12860
C         -2.89880       -1.34720        0.06660
N         -2.59250       -0.04330        0.26560
C         -1.86720        0.61120        1.36010
C         -0.39430        0.79460        1.06520
C          0.20110        0.36990       -0.13960
C          1.57200        0.53920       -0.34860
C          2.37400        1.12590        0.64160
C          3.82840        1.29400        0.42380
C          4.35730        2.59630        0.43840
C          5.70680        2.81840        0.16330
C          6.54550        1.74480       -0.12970
C          6.04190        0.44280       -0.13560
C          4.68650        0.19490        0.15020
C          4.21490       -1.21080        0.21050
N          3.23320       -1.66070        1.01620
N          3.15670       -2.96180        0.77460
N          4.05460       -3.30520       -0.13620
N          4.72960       -2.22980       -0.49910
C          1.78120        1.57090        1.83170
C          0.41020        1.40230        2.04210
H         -5.71850        1.78080       -1.68860
H         -5.41590        3.27980       -0.72190
H         -5.74830        3.39390       -2.49440
H         -3.58980        2.18390       -2.97260
H         -3.34250        3.71340       -2.05890
H         -4.86280       -2.66120       -2.37990
H         -4.39720       -4.72920       -1.06390
H         -2.95880       -4.63830        0.94010
H         -1.39280       -3.25410        3.91630
H         -2.31290        1.61330        1.54300
H         -2.00540        0.04690        2.30400
H         -0.38060       -0.10040       -0.92030
H          2.01120        0.20590       -1.28110
H          3.71620        3.44570        0.64200
H          6.10140        3.82630        0.17010
H          7.59210        1.92020       -0.34270
H          6.72390       -0.37380       -0.33510
H          5.49240       -2.20970       -1.21120
H          2.38380        2.03350        2.60370
H         -0.02580        1.73960        2.97460
