25

C          0.03290        2.38690       -0.21970
C          0.88500        1.14580       -0.27750
N          2.22660        1.26470       -0.50950
C          3.05550        0.18390       -0.52890
O          4.28700        0.34650       -0.75000
C          2.54060       -1.09950       -0.30020
C          3.39770       -2.25990       -0.30970
N          4.08500       -3.19090       -0.31730
C          1.17410       -1.25080       -0.05950
C          0.32770       -0.13480       -0.05530
C         -1.11440       -0.33250        0.20530
C         -1.54410       -0.83210        1.44270
C         -2.90880       -1.02670        1.66880
N         -3.80970       -0.74230        0.69090
C         -3.41890       -0.26820       -0.52200
C         -2.06390       -0.05900       -0.78960
H         -0.70170        2.38510       -1.05010
H          0.65030        3.30470       -0.31290
H         -0.50470        2.43090        0.75090
H          2.64020        2.21080       -0.67450
H          0.76440       -2.23950        0.11650
H         -0.83070       -1.06080        2.22500
H         -3.25190       -1.40540        2.62220
H         -4.16020       -0.05800       -1.28130
H         -1.75800        0.30080       -1.76400
