57

C         -5.31310        0.90140        1.20850
C         -3.90720        0.36850        1.09110
O         -3.19940        0.48550        2.07610
C         -3.37170       -0.23660       -0.23120
C         -4.32280       -1.39590       -0.63870
C         -3.36010        0.90710       -1.29480
C         -1.91870        1.45710       -1.35810
C         -1.14260        0.67520       -0.29830
C          0.39380        0.57470       -0.44930
C          1.02590        1.94560       -0.38380
C          2.34370        2.06900       -0.18980
C          2.97530        3.43430       -0.16950
C          3.16100        0.83410       -0.07160
C          4.38170        0.79100       -0.63590
C          5.13680       -0.46480       -0.75060
O          6.31320       -0.44010       -1.19960
C          4.53310       -1.77380       -0.33980
C          3.00890       -1.67430       -0.16070
C          2.56300       -0.40210        0.62440
C          3.13150       -0.45650        2.06460
C          0.98030       -0.28220        0.71630
C          0.23540       -1.64100        0.91110
C         -1.30000       -1.47800        0.98900
C         -1.84830       -0.68730       -0.23700
C         -1.55210       -1.54560       -1.52520
H         -5.88210        0.28610        1.93630
H         -5.85070        0.90070        0.23950
H         -5.28050        1.95010        1.57240
H         -4.19040       -2.25400        0.05390
H         -5.38850       -1.09600       -0.61180
H         -4.14490       -1.74400       -1.67620
H         -4.06520        1.73310       -1.05930
H         -3.64870        0.52640       -2.29900
H         -1.48230        1.28890       -2.36700
H         -1.90410        2.54660       -1.13730
H         -1.31400        1.20830        0.66510
H          0.67030        0.13180       -1.42790
H          0.41120        2.83350       -0.47370
H          3.89810        3.42270        0.44810
H          3.23180        3.74110       -1.20500
H          2.28390        4.18460        0.27050
H          4.80000        1.67130       -1.10870
H          4.75510       -2.53950       -1.11420
H          5.00760       -2.11000        0.60640
H          2.68730       -2.59680        0.36790
H          2.53170       -1.66880       -1.16590
H          2.78140       -1.36880        2.59190
H          4.24130       -0.45590        2.06910
H          2.80920        0.43280        2.64830
H          0.74540        0.29690        1.64080
H          0.58230       -2.11120        1.85620
H          0.47460       -2.35710        0.10280
H         -1.49940       -0.98670        1.95420
H         -1.77640       -2.48100        1.03590
H         -1.97120       -2.56810       -1.41300
H         -0.47730       -1.68110       -1.73800
H         -1.98320       -1.10120       -2.44420
