34

C          3.41130       -0.76380       -0.66760
C          2.84800       -0.76630        0.75410
C          1.30960       -0.83820        0.77610
C          0.61210        0.52200        0.46740
C          0.57080        1.39570        1.73930
C         -0.78540        0.31750       -0.25410
C         -1.54710        1.67520       -0.47940
C         -2.50380        2.14150        0.62840
C         -0.47170       -0.20810       -1.66280
O          0.25770        0.48190       -2.42760
N         -0.99610       -1.44040       -2.16240
C         -1.87440       -2.24310       -1.38710
O         -2.35330       -3.30270       -1.87120
N         -2.20650       -1.85260       -0.06230
C         -1.65740       -0.67450        0.53350
O         -1.90220       -0.46270        1.75140
H          4.52070       -0.77700       -0.62450
H          3.07060       -1.66450       -1.22120
H          3.09660        0.14480       -1.22030
H          3.21370        0.12890        1.29850
H          3.24870       -1.66000        1.28000
H          0.98580       -1.19690        1.77800
H          0.99000       -1.62480        0.05910
H          1.26100        1.09330       -0.23100
H          1.58350        1.48230        2.18310
H          0.25500        2.43040        1.49650
H         -0.09290        0.97080        2.51660
H         -0.81240        2.48560       -0.67950
H         -2.17440        1.60360       -1.39730
H         -2.01660        2.18150        1.62020
H         -3.38740        1.47110        0.68270
H         -2.87100        3.16140        0.38720
H         -0.74630       -1.74720       -3.12980
H         -2.83630       -2.46470        0.50430
