36

C         -2.61090       -1.71570       -4.46870
O         -1.86710       -0.88480       -3.58330
C         -1.25670       -1.33160       -2.40170
C         -1.32730       -2.66770       -1.97700
C         -0.71450       -3.06180       -0.78730
C         -0.01090       -2.13110        0.00140
O          0.59450       -2.50750        1.21260
C          0.56490       -3.82140        1.76070
C          0.08520       -0.78870       -0.43170
C          0.81730        0.25020        0.40260
O          1.70270        0.99980       -0.39660
C         -0.17990        1.14960        1.15610
N          0.54000        2.11220        1.98980
C          0.48030        3.53070        1.78240
O         -0.20250        4.01310        0.83860
C          1.27970        4.45130        2.65850
N          2.65860        4.55350        2.18800
C         -0.55710       -0.40410       -1.62480
H         -2.97820       -1.10370       -5.31770
H         -3.48490       -2.15120       -3.93970
H         -1.96330       -2.52500       -4.86730
H         -1.86010       -3.40980       -2.55570
H         -0.79860       -4.09700       -0.48670
H          1.05330       -4.53650        1.06560
H         -0.48380       -4.13060        1.95520
H          1.11970       -3.82550        2.72110
H          1.44310       -0.25670        1.16710
H          1.18500        1.70130       -0.87060
H         -0.82180        0.52200        1.81160
H         -0.84810        1.66620        0.43360
H          1.13460        1.74230        2.76570
H          0.81820        5.46250        2.66480
H          1.27370        4.07250        3.70300
H          3.08650        3.59870        2.18690
H          2.65260        4.89930        1.20050
H         -0.52440        0.62530       -1.95690
