52

C          2.07550        0.76080        1.40260
C          2.20660        0.41230       -0.10360
C          3.00500        1.54690       -0.82020
C          4.45770        1.66340       -0.33520
C          5.11760        0.32080       -0.24510
O          6.36870        0.25190       -0.11890
C          4.32620       -0.91730       -0.29360
C          2.98260       -0.90160       -0.24460
C          2.24390       -2.20760       -0.39790
C          0.85810       -2.14380        0.23780
C         -0.02560       -1.02040       -0.36350
C          0.80240        0.24590       -0.80280
C         -0.04120        1.54780       -0.82440
C         -1.51010        1.25520       -1.13030
C         -2.17460        0.43560        0.01810
C         -2.51590        1.41470        1.18450
C         -1.23090       -0.68370        0.57350
C         -2.13460       -1.91340        0.82670
C         -3.56730       -1.48570        0.54760
C         -3.45290       -0.34220       -0.45690
C         -4.75950        0.49200       -0.47630
O         -3.24240       -0.93480       -1.72340
H          1.36940        0.09600        1.92820
H          1.73610        1.80620        1.55120
H          3.05450        0.65970        1.91730
H          3.02260        1.35190       -1.91600
H          2.51340        2.53200       -0.66930
H          5.02100        2.30050       -1.05090
H          4.49480        2.15590        0.65970
H          4.85570       -1.85920       -0.38170
H          2.15250       -2.44990       -1.47880
H          2.80910       -3.03000        0.09440
H          0.97010       -2.02180        1.33550
H          0.36910       -3.12890        0.08110
H         -0.46540       -1.44210       -1.29740
H          1.03970        0.05250       -1.87610
H          0.34710        2.22510       -1.61620
H          0.03540        2.10030        0.12960
H         -1.53100        0.71650       -2.09910
H         -2.05460        2.21130       -1.29120
H         -1.59940        1.85030        1.63240
H         -3.14350        2.26020        0.83190
H         -3.05470        0.89630        2.00440
H         -0.80960       -0.37230        1.55350
H         -2.03240       -2.27710        1.87250
H         -1.89130       -2.75320        0.14090
H         -4.04100       -1.14800        1.49550
H         -4.16830       -2.33010        0.14270
H         -4.62440        1.40220       -1.09830
H         -5.58460       -0.11100       -0.91200
H         -5.07170        0.79990        0.54380
H         -3.50770       -0.29020       -2.43060
