103

C        -13.57050        4.28900       -1.93820
C        -13.21470        2.87690       -1.48230
C        -12.25250        2.90820       -0.28590
C        -11.77090        1.50680        0.12040
C        -12.89110        0.65410        0.74380
C        -12.35650       -0.62950        1.39770
C        -11.84790       -1.64770        0.36300
C        -11.44410       -2.99040        0.99960
C        -10.22660       -2.90090        1.93790
C         -9.00620       -2.34380        1.24740
C         -8.50310       -1.08190        1.60040
C         -7.38450       -0.55760        0.94630
C         -6.74370       -1.29550       -0.06790
O         -5.61850       -0.81970       -0.76100
C         -4.89800        0.37560       -0.45730
C         -4.02950        0.19130        0.79060
O         -3.20390       -0.95070        0.65480
C         -1.92000       -0.58400        0.19410
C         -1.10890       -1.84720       -0.08120
O          0.21010       -1.50620       -0.46490
C          0.34270       -1.53780       -1.87100
C          1.72350       -1.02230       -2.26690
O          2.72960       -1.89960       -1.79080
C          3.39570       -1.36690       -0.66100
C          4.60020       -0.53310       -1.09280
O          5.28350       -0.07840        0.05680
C          6.48300        0.58040       -0.30480
C          7.67010       -0.37630       -0.17350
O          8.87330        0.28410       -0.52140
C          9.52190        0.81480        0.62030
C         10.54200       -0.18050        1.16990
O         11.48590       -0.48340        0.16490
C         12.41750       -1.42300        0.65830
C         13.48150       -1.68280       -0.40640
O         14.08680       -0.46630       -0.79950
C         15.27680       -0.23580       -0.07290
C         15.61870        1.25120       -0.12080
O         14.72650        1.98170        0.70190
C         13.76320        2.65920       -0.07820
C         12.74890        3.33020        0.84350
O         13.38010        4.27030        1.67010
C         -7.24660       -2.55490       -0.41420
C         -8.36640       -3.07850        0.23760
H        -12.65700        4.83270       -2.26070
H        -14.05880        4.84920       -1.11250
H        -14.27320        4.23680       -2.79630
H        -12.74420        2.33400       -2.33080
H        -14.15270        2.35220       -1.20290
H        -11.35900        3.51170       -0.55900
H        -12.74150        3.40490        0.58080
H        -11.34690        0.99380       -0.76900
H        -10.95150        1.62910        0.86240
H        -13.40480        1.24930        1.53020
H        -13.64590        0.38790       -0.02670
H        -13.18270       -1.09220        1.98030
H        -11.54870       -0.36340        2.11120
H        -12.65820       -1.84780       -0.37150
H        -10.98750       -1.23070       -0.20030
H        -11.22120       -3.71370        0.18550
H        -12.30640       -3.40150        1.56810
H        -10.48940       -2.29400        2.83040
H         -9.98860       -3.91890        2.31510
H         -8.98290       -0.49610        2.37450
H         -7.03470        0.42260        1.23570
H         -5.59160        1.23390       -0.33330
H         -4.24190        0.61400       -1.31990
H         -4.68740        0.03250        1.66920
H         -3.46400        1.13100        0.99760
H         -1.98650        0.00870       -0.74570
H         -1.39030        0.01350        0.97050
H         -1.04840       -2.43560        0.85900
H         -1.64200       -2.49040       -0.82220
H          0.23190       -2.58040       -2.24670
H         -0.42080       -0.89000       -2.35910
H          1.84240        0.03710       -1.93720
H          1.78170       -1.00900       -3.37590
H          3.76380       -2.21910       -0.05110
H          2.72560       -0.77320        0.00400
H          5.25930       -1.17130       -1.72490
H          4.24300        0.33420       -1.69180
H          6.62870        1.42680        0.39860
H          6.46170        1.02480       -1.32880
H          7.69070       -0.82930        0.84560
H          7.52900       -1.21700       -0.88430
H          8.81610        1.12560        1.42600
H         10.06160        1.73460        0.31050
H         10.00680       -1.09830        1.50340
H         11.04190        0.28800        2.04810
H         11.91230       -2.38830        0.88940
H         12.91850       -1.04520        1.57850
H         12.98390       -2.12180       -1.29720
H         14.21200       -2.44650       -0.04730
H         16.10620       -0.81090       -0.54010
H         15.19270       -0.53590        0.99810
H         16.64190        1.38280        0.29070
H         15.65950        1.60180       -1.18020
H         14.24990        3.44030       -0.70510
H         13.21190        1.95200       -0.73750
H         11.95140        3.81820        0.23820
H         12.26810        2.55910        1.48170
H         13.55900        5.06850        1.10740
H         -6.76480       -3.13230       -1.19300
H         -8.73540       -4.05630       -0.04580
