48

C          5.53860        2.48250       -0.85720
C          4.64950        1.25980       -1.02160
O          3.30640        1.67710       -1.15280
C          2.43920        0.55900       -1.16500
C          1.88020        0.30930        0.24040
N          0.88750       -0.76940        0.22300
C         -0.44820       -0.69120        0.47360
N         -1.13940        0.53630        0.75710
C         -1.98260        0.61230        1.95210
C         -3.47100        0.51340        1.59080
C         -3.97690        1.78880        0.88500
N         -3.81690        1.79080       -0.59180
C         -4.99310        1.20580       -1.25690
C         -2.57370        1.18940       -1.12980
C         -1.31730        1.52420       -0.31100
N         -1.07180       -1.89820        0.50520
C         -0.06870       -2.75850        0.25610
C         -0.14080       -4.14850        0.20510
C          1.05400       -4.85940       -0.01180
C          2.27950       -4.17120       -0.15660
C          2.32010       -2.76600       -0.09390
C          1.11210       -2.08990        0.09780
H          5.24490        3.04540        0.05420
H          6.59850        2.16590       -0.75920
H          5.44100        3.14560       -1.74280
H          4.78550        0.60770       -0.12900
H          4.97400        0.71070       -1.93420
H          1.59680        0.79240       -1.84760
H          2.91190       -0.36270       -1.57630
H          2.70200        0.03890        0.93690
H          1.42290        1.24720        0.62150
H         -1.72590       -0.20990        2.65650
H         -1.77800        1.56380        2.48890
H         -4.03860        0.39340        2.53930
H         -3.66750       -0.39210        0.97810
H         -3.46890        2.68540        1.30020
H         -5.04720        1.93390        1.15590
H         -5.90490        1.78930       -1.00650
H         -4.87520        1.24760       -2.36160
H         -5.14050        0.14760       -0.94820
H         -2.67190        0.08380       -1.22630
H         -2.41970        1.58500       -2.15770
H         -0.44020        1.50810       -0.98840
H         -1.37400        2.55060        0.11080
H         -1.08210       -4.66590        0.33760
H          1.03560       -5.94050       -0.05640
H          3.19450       -4.72870       -0.30880
H          3.26040       -2.23890       -0.18070
