43

C          0.19070       -3.41830        3.24550
C          0.50650       -2.65220        2.00130
O          1.45790       -3.03720        1.26920
N         -0.26280       -1.49430        1.64300
C          0.03490       -0.69580        0.44420
C         -1.21300        0.10660       -0.00760
N         -2.38500       -0.76800       -0.15940
C         -3.60440       -0.36630       -0.81470
N         -4.61290       -1.17860       -0.84820
N         -3.72840        0.91330       -1.44470
C         -1.51040        1.23300        0.95670
C         -0.54800        1.77980        1.72140
C         -0.82770        2.89840        2.64590
O         -0.01940        3.12960        3.58300
O         -1.93930        3.72910        2.50280
O          0.75920        1.26490        1.69510
C          1.20370        0.27170        0.76600
C          1.89240        0.96310       -0.44660
O          1.04290        1.90080       -1.06010
C          2.42610       -0.03540       -1.50430
O          1.37990       -0.43210       -2.35470
C          3.54520        0.59420       -2.35470
O          4.67740        0.86940       -1.57360
H          1.07540       -3.41790        3.91590
H         -0.06630       -4.46530        2.98150
H         -0.66680       -2.96550        3.78570
H         -1.04280       -1.20110        2.27440
H          0.31150       -1.39270       -0.37280
H         -0.98710        0.54120       -1.00180
H         -2.33030       -1.75420        0.18290
H         -4.57540       -2.12480       -0.40740
H         -4.62550        1.18190       -1.90710
H         -2.94530        1.60080       -1.47130
H         -2.52720        1.59460        1.01390
H         -2.56500        3.67790        1.70970
H          1.99920       -0.31610        1.27450
H          2.77290        1.50160       -0.02060
H          1.08000        2.73180       -0.51820
H          2.84590       -0.92640       -0.97960
H          1.65740       -1.28800       -2.77490
H          3.82060       -0.09220       -3.18790
H          3.18420        1.54090       -2.81060
H          5.11900       -0.00190       -1.39620
