57

C         -7.53470       -2.40580        0.65070
C         -6.46890       -1.34780        0.37950
C         -5.30270       -1.93310       -0.43020
C         -4.27320       -0.86780       -0.83890
C         -3.45200       -0.34960        0.35360
C         -2.31800        0.58930       -0.10320
O         -2.84330        1.70700       -0.77550
C         -1.46730        1.02120        1.07450
C         -0.36260        1.78640        0.98370
C          0.19560        2.36430       -0.30880
C          1.33450        3.36410       -0.08480
O          2.25910        2.86710        0.85110
C          2.00020        3.48230       -1.45250
C          1.83130        2.11840       -2.12270
O          3.02270        1.36000       -2.01800
C          2.85780        0.23000       -1.24800
C          3.85930       -0.63100       -1.03530
C          3.73690       -1.85860       -0.17260
C          3.95850       -1.54280        1.31730
C          5.40230       -1.11420        1.64270
C          6.40650       -2.23260        1.58600
O          6.05020       -3.42640        1.39090
O          7.75340       -1.93980        1.77290
C          1.47500        0.12040       -0.71770
C          0.75760        1.34960       -1.32670
H         -7.95280       -2.78730       -0.30520
H         -8.35950       -1.95910        1.24490
H         -7.10070       -3.25190        1.22520
H         -6.93300       -0.50710       -0.18070
H         -6.10180       -0.96370        1.35450
H         -5.70620       -2.39290       -1.35910
H         -4.80230       -2.73720        0.15290
H         -3.58150       -1.32730       -1.57860
H         -4.79050       -0.02200       -1.34230
H         -4.11440        0.19580        1.05960
H         -3.00770       -1.21630        0.89170
H         -1.67710        0.01780       -0.80430
H         -3.39450        2.21580       -0.12430
H         -1.76130        0.69190        2.06820
H          0.13740        2.03370        1.91590
H         -0.62320        2.92910       -0.80770
H          0.92920        4.34720        0.25200
H          2.83000        3.63320        1.12060
H          1.46710        4.25320       -2.05180
H          3.06940        3.77780       -1.37110
H          1.54830        2.22850       -3.19260
H          4.81600       -0.43610       -1.50440
H          4.48220       -2.60690       -0.51400
H          2.73800       -2.32510       -0.30820
H          3.68830       -2.43380        1.92490
H          3.27160       -0.72790        1.62830
H          5.72210       -0.30490        0.95280
H          5.42130       -0.69430        2.67100
H          8.45310       -2.67190        1.74670
H          0.99700       -0.81730       -1.07390
H          1.49870        0.13360        0.38940
H         -0.04150        1.01500       -2.02340
