57

N          9.29660        0.92420        0.96400
C          7.99290        0.75530        0.40730
N          6.92230        1.32730        1.01530
C          5.67030        1.19120        0.50890
C          5.46180        0.45920       -0.66820
C          6.57900       -0.16750       -1.25710
O          6.44620       -0.91660       -2.26160
N          7.81660        0.00890       -0.71750
N          4.11410        0.32600       -1.17770
C          3.85890        0.20010       -2.58920
O          2.73000       -0.16510       -3.01290
C          2.99210        0.47480       -0.23250
C          2.86200       -0.80130        0.62430
N          1.65250       -0.76970        1.44960
C          0.30880       -0.88220        0.94070
C         -0.76950       -0.60580        1.79390
C         -2.08610       -0.70740        1.33640
C         -2.35280       -1.10020        0.01370
C         -3.74370       -1.19990       -0.48820
O         -3.96240       -1.07870       -1.72450
N         -4.83960       -1.44800        0.41310
C         -6.25430       -1.23720        0.07030
C         -6.51850        0.21760       -0.37220
C         -6.11560        1.22830        0.71110
C         -6.41820        2.63050        0.27250
O         -5.47640        3.43730        0.05400
O         -7.73380        3.05800        0.11570
C         -6.72660       -2.22050       -0.97140
O         -5.95980       -3.12090       -1.40870
O         -8.04110       -2.16080       -1.42520
C         -1.27360       -1.37260       -0.84350
C          0.04300       -1.27250       -0.38500
C          3.20660        1.73520        0.63140
N          4.55580        1.77250        1.19470
H          9.42990        1.49080        1.83090
H         10.13050        0.48640        0.51350
H          8.64210       -0.44970       -1.16620
H          4.63450        0.42430       -3.30890
H          2.04160        0.62780       -0.78690
H          3.74980       -0.89410        1.28710
H          2.85500       -1.70550       -0.02030
H          1.78430       -0.64330        2.47920
H         -0.58900       -0.29800        2.81630
H         -2.88940       -0.45280        2.01510
H         -4.63070       -1.77890        1.38150
H         -6.86520       -1.42690        0.98080
H         -5.97010        0.44210       -1.31210
H         -7.60400        0.33410       -0.58420
H         -6.66830        1.01930        1.65220
H         -5.02770        1.13810        0.92160
H         -8.51340        2.44140        0.31010
H         -8.38370       -2.81950       -2.11430
H         -1.44780       -1.67640       -1.86850
H          0.84300       -1.50570       -1.07290
H          2.45740        1.78040        1.45070
H          3.06400        2.63710       -0.00200
H          4.72010        2.30920        2.07590
