48

O          2.75270        1.85980        1.36360
C          2.80080        2.49660        0.27610
O          3.29870        3.79560        0.25940
C          2.37170        1.84890       -1.01760
C          1.15000        0.91530       -0.83350
C         -0.11470        1.62970       -0.41700
O         -0.13370        2.88770       -0.32100
N         -1.30930        0.88340       -0.13140
C         -2.55180        1.50230        0.32210
C         -3.39490        0.32240        0.78740
C         -4.92430        0.45770        0.68900
C         -5.61280       -0.93350        0.60370
C         -4.74970       -2.08230        1.18370
C         -3.33710       -2.17590        0.54140
C         -2.91040       -0.83260       -0.07550
C         -1.41810       -0.57060       -0.22930
C          3.55760        1.12450       -1.69380
C          4.08950       -0.04320       -0.89550
C          5.10340        0.15090        0.05840
C          5.59890       -0.93200        0.79110
C          5.09390       -2.21630        0.57160
C          4.09490       -2.42050       -0.38400
C          3.59690       -1.34060       -1.11920
H          3.60910        4.24380        1.11310
H          2.06780        2.66230       -1.71380
H          1.38280        0.13900       -0.07360
H          0.94470        0.39800       -1.79520
H         -3.02860        2.04190       -0.52470
H         -2.36040        2.20070        1.16570
H         -3.12540        0.11730        1.85090
H         -5.20420        1.05210       -0.20790
H         -5.29350        1.00350        1.58420
H         -6.58650       -0.89780        1.13820
H         -5.83100       -1.16560       -0.46190
H         -4.64030       -1.91740        2.27810
H         -5.28220       -3.04820        1.04850
H         -3.33910       -2.95090       -0.25550
H         -2.60950       -2.49390        1.31950
H         -3.37170       -0.74580       -1.08820
H         -0.83140       -1.04390        0.58760
H         -1.06280       -0.92970       -1.21910
H          4.37800        1.85410       -1.87440
H          3.24160        0.77240       -2.70060
H          5.50580        1.14030        0.23720
H          6.37560       -0.77550        1.52850
H          5.47850       -3.05340        1.13960
H          3.70690       -3.41620       -0.55580
H          2.82350       -1.51410       -1.85710
