56

C          3.03510       -2.33870        0.68250
C          2.34160       -1.09140        0.08510
C          3.42710       -0.18450       -0.52350
C          4.22210       -0.70110       -1.56430
C          5.27420        0.03860       -2.09600
C          5.52730        1.32530       -1.63330
C          4.71350        1.90520       -0.65690
O          4.95860        3.24400       -0.34040
C          3.66620        1.14320       -0.06950
C          2.74020        1.70450        0.93190
O          3.06890        2.62820        1.72280
C          1.41870        1.09260        1.01630
C          0.30900        1.83360        0.82560
O          0.42400        3.22710        0.83600
C         -1.07170        1.20270        0.65200
O         -1.83840        1.44310        1.81140
C         -1.82190        1.79790       -0.52830
O         -1.32370        2.67230       -1.22410
C         -3.17480        1.24800       -0.91160
C         -4.22950        2.28970       -0.63710
N         -5.00490        2.83570       -1.70470
O         -4.43210        2.68550        0.54290
C         -3.49420       -0.05640       -0.20010
O         -4.66180       -0.40510       -0.09730
C         -2.40280       -0.97340        0.35730
N         -2.36050       -2.29510       -0.33030
C         -3.31910       -3.25660        0.23850
C         -2.50570       -2.22570       -1.79700
C         -0.98400       -0.31810        0.34410
C          0.00330       -1.01300        1.30870
O          0.02770       -2.39740        1.06340
C          1.43480       -0.40990        1.17550
H          3.47520       -2.96910       -0.11730
H          2.33510       -2.98190        1.24880
H          3.84550       -2.03110        1.37840
H          1.68790       -1.42090       -0.75220
H          4.03630       -1.69110       -1.96010
H          5.88940       -0.38380       -2.88000
H          6.33460        1.89790       -2.07280
H          4.33030        3.82750        0.19150
H         -0.38840        3.83160        0.82160
H         -1.30520        1.18020        2.60550
H         -3.15500        1.02170       -1.99970
H         -4.85570        2.52500       -2.69020
H         -5.73420        3.55680       -1.50900
H         -2.65740       -1.12010        1.43240
H         -4.36780       -2.93000        0.07460
H         -3.17930       -4.25510       -0.22890
H         -3.14060       -3.38120        1.32790
H         -1.84370       -1.44750       -2.22880
H         -3.55540       -2.00620       -2.09150
H         -2.20850       -3.19660       -2.24710
H         -0.55620       -0.43050       -0.67760
H         -0.33580       -0.82920        2.35630
H         -0.54390       -2.83510        1.74720
H          1.92600       -0.58200        2.16110
