62

C         -1.85000       -3.55480       -3.77520
C         -0.83470       -3.11170       -2.72770
O         -1.30070       -1.96130       -2.02520
C         -1.35950       -0.68200       -2.59290
O         -0.87160       -0.46840       -3.73640
C         -1.97560        0.46420       -1.83200
C         -2.84010       -0.01480       -0.63820
C         -3.72790        1.10240       -0.06710
C         -4.61630        0.57470        1.03010
C         -4.06570        0.20470        2.26960
C         -4.88870       -0.28220        3.28970
C         -6.26550       -0.40080        3.08240
C         -6.82190       -0.03120        1.85500
C         -6.00280        0.45650        0.83170
N         -0.93980        1.44550       -1.45010
C          0.10920        0.95230       -0.52480
C          0.02580        1.66990        0.83210
C          1.47260        1.18390       -1.13740
O          1.56760        1.85750       -2.20070
N          2.67420        0.68110       -0.51380
C          3.89450        1.50210       -0.58620
C          4.63910        1.42320        0.71620
C          5.24100        2.55290        1.29060
C          5.93020        2.43720        2.50180
C          6.02440        1.19640        3.13980
C          5.42660        0.06750        2.57070
C          4.72190        0.18150        1.36300
C          4.09020       -1.01210        0.70500
C          2.69580       -0.65140        0.14050
C          2.25930       -1.72520       -0.82100
O          1.38010       -2.55600       -0.47200
O          2.82930       -1.82660       -2.08740
H         -2.83200       -3.74610       -3.29300
H         -1.97250       -2.77320       -4.55350
H         -1.49980       -4.48920       -4.26200
H         -0.69580       -3.93740       -1.99860
H          0.14770       -2.90180       -3.20380
H         -2.66260        0.96560       -2.55000
H         -3.50980       -0.83010       -0.99320
H         -2.20280       -0.44160        0.16390
H         -3.10960        1.92630        0.34480
H         -4.34460        1.53040       -0.88770
H         -3.00120        0.29600        2.44590
H         -4.45900       -0.56640        4.24150
H         -6.90110       -0.77780        3.87310
H         -7.88860       -0.12280        1.69610
H         -6.44960        0.73630       -0.11420
H         -1.38160        2.33570       -1.12210
H         -0.00020       -0.13630       -0.34440
H          0.82060        1.31510        1.52010
H         -0.95250        1.46680        1.31230
H          0.14160        2.76730        0.70080
H          3.64580        2.56160       -0.81800
H          4.54400        1.11290       -1.39900
H          5.18050        3.51730        0.80190
H          6.39530        3.30860        2.94420
H          6.56370        1.10900        4.07410
H          5.51180       -0.88960        3.06980
H          3.98730       -1.85210        1.42710
H          4.76630       -1.34640       -0.11250
H          1.99490       -0.63530        1.00290
H          3.54260       -1.17760       -2.39660
