33

C          4.43700       -0.84550        0.43400
C          3.16410       -0.16540       -0.00120
C          3.24790        0.89210       -0.92150
C          2.10230        1.56520       -1.33610
C          0.85730        1.20480       -0.83000
C          0.73540        0.15040        0.08980
N         -0.55720       -0.15740        0.64770
C         -1.78140       -0.06550       -0.10230
C         -1.81600       -0.54200       -1.42540
C         -3.01000       -0.55300       -2.14650
C         -4.18710       -0.10020       -1.55410
C         -4.17270        0.37580       -0.24190
C         -2.97510        0.41060        0.49790
C         -2.99350        0.98890        1.86340
O         -4.06510        1.00750        2.52770
O         -1.84530        1.55340        2.41230
C          1.89320       -0.56150        0.49770
C          1.76150       -1.69800        1.48740
H          4.52610       -0.80750        1.54020
H          4.43620       -1.90220        0.09400
H          5.33540       -0.35340        0.00410
H          4.20610        1.20260       -1.31970
H          2.18200        2.38240       -2.04160
H         -0.01470        1.76680       -1.13940
H         -0.61400       -0.48540        1.63760
H         -0.91860       -0.92980       -1.89070
H         -3.02480       -0.92530       -3.16280
H         -5.11330       -0.11400       -2.11410
H         -5.09830        0.73810        0.18840
H         -1.85710        1.95990        3.34000
H          0.85020       -2.29590        1.27570
H          2.60900       -2.40910        1.43620
H          1.70060       -1.28700        2.51660
