44

C         -3.71340       -1.27480        2.95050
C         -3.85570       -0.14210        2.25700
C         -4.40760       -0.14190        0.85820
N         -3.51030       -0.87190       -0.06080
C         -4.16610       -1.12610       -1.35250
C         -3.10540       -1.00380       -2.42430
C         -2.14690        0.01650       -1.86410
C         -2.25500       -0.14170       -0.34360
C         -1.07410       -0.94390        0.22890
N          0.17470       -0.19210        0.09810
C          1.29890       -0.66650       -0.66010
O          1.16880       -1.66050       -1.42570
C          2.60350        0.02870       -0.59490
C          3.36180        0.16650       -1.78230
C          4.57560        0.83470       -1.70280
N          5.45740        1.09840       -2.67840
N          6.44320        1.75880       -2.07550
N          6.23270        1.92700       -0.77200
C          5.04860        1.34200       -0.53820
C          4.35750        1.22160        0.65980
C          3.11190        0.54050        0.64060
O          2.37750        0.33350        1.81990
C          2.77060        0.79330        3.10860
H         -3.98590       -2.23220        2.51650
H         -3.31750       -1.24730        3.96030
H         -3.58030        0.80190        2.71740
H         -5.40740       -0.63110        0.88400
H         -4.55640        0.90710        0.51580
H         -4.60910       -2.14490       -1.35770
H         -4.97010       -0.38250       -1.56410
H         -3.53480       -0.67630       -3.39600
H         -2.58460       -1.97860       -2.55260
H         -2.48680        1.03540       -2.15480
H         -1.12030       -0.13900       -2.26000
H         -2.24560        0.87180        0.12220
H         -1.25060       -1.13750        1.30790
H         -1.00810       -1.93220       -0.27590
H          0.23370        0.73890        0.56880
H          3.00860       -0.21760       -2.73150
H          7.29210        2.10770       -2.57240
H          4.77950        1.62960        1.56810
H          2.00080        0.49510        3.84950
H          3.73950        0.33470        3.39860
H          2.85480        1.90050        3.10960
