32

C          0.03090       -2.54770        1.04190
C         -0.26360       -1.90070       -0.31900
C         -0.14500       -0.34500       -0.34650
C          1.27960        0.19600       -0.09720
C          1.45860        1.58040        0.12900
C          2.73370        2.12210        0.30960
C          3.85850        1.30150        0.24250
C          3.71100       -0.06010       -0.01930
C          2.43840       -0.60960       -0.20200
C         -0.54750        0.09900       -1.74380
O          0.25870       -0.05890       -2.70170
N         -1.84580        0.62870       -2.02000
C         -2.81150        0.81340       -0.98880
O         -3.96730        1.21810       -1.28950
N         -2.46090        0.55850        0.37830
C         -3.42730        0.82760        1.44800
C         -1.10140        0.21700        0.70430
O         -0.70480        0.32710        1.89890
H          0.10050       -3.64890        0.91790
H         -0.79190       -2.33770        1.75690
H          0.98380       -2.18290        1.47440
H          0.39110       -2.35690       -1.09220
H         -1.30100       -2.18940       -0.60230
H          0.60550        2.24660        0.16110
H          2.84930        3.18250        0.49350
H          4.84580        1.72310        0.37990
H          4.58700       -0.69220       -0.09040
H          2.38270       -1.66280       -0.42900
H         -2.09930        0.86970       -3.00480
H         -3.21600        0.19420        2.33580
H         -4.45970        0.59010        1.11470
H         -3.37210        1.89740        1.73930
