63

C          7.15420        2.25070        0.15920
C          7.19970        0.81070       -0.35040
C          6.48820       -0.18150        0.58650
C          4.98090        0.07130        0.76970
C          4.18850       -0.05060       -0.54430
C          2.65670       -0.03410       -0.31220
C          1.92700       -1.41690       -0.37440
C          2.58870       -2.40670        0.61800
C          2.03330       -2.03360       -1.79220
C          0.43160       -1.17940       -0.05190
C         -0.22030       -1.76360        1.05780
C         -1.57060       -1.51340        1.32610
O         -2.18040       -2.26670        2.33070
C         -2.28240       -0.56400        0.55520
C         -1.68710       -0.10310       -0.63630
C         -0.34430       -0.37070       -0.90730
O         -2.43210        0.60810       -1.58400
C         -3.85390        0.73120       -1.51900
C         -4.24760        1.90930       -2.42870
C         -4.49590       -0.56070       -2.06570
C         -4.22810        1.00860       -0.03520
C         -5.73480        1.24810        0.23920
C         -5.94700        1.72150        1.68660
C         -5.22410        0.81910        2.64990
O         -5.79620        0.38700        3.63910
C         -3.79440        0.43830        2.36700
C         -3.69550       -0.10750        0.91970
H          7.81070        2.88610       -0.47180
H          7.51320        2.30380        1.20900
H          6.12270        2.65540        0.09760
H          6.77060        0.76040       -1.37310
H          8.26540        0.50490       -0.43060
H          6.97720       -0.14740        1.58450
H          6.63450       -1.21010        0.19050
H          4.60570       -0.67350        1.50130
H          4.81170        1.07230        1.21990
H          4.44630        0.82180       -1.18280
H          4.50900       -0.95430       -1.09930
H          2.21860        0.63650       -1.08290
H          2.43070        0.45330        0.66300
H          2.06640       -3.38760        0.60060
H          3.64590       -2.60960        0.34770
H          2.57190       -2.00030        1.65200
H          3.05450       -2.41330       -2.00300
H          1.33630       -2.89410       -1.89010
H          1.78560       -1.29220       -2.58010
H          0.28810       -2.45120        1.71640
H         -3.18480       -2.35690        2.41440
H          0.08330        0.04910       -1.80750
H         -3.79770        1.77750       -3.43630
H         -3.87380        2.86850       -2.01110
H         -5.34800        1.97500       -2.55850
H         -4.17130       -0.73070       -3.11460
H         -4.18620       -1.44750       -1.47590
H         -5.60370       -0.49170       -2.05390
H         -3.69870        1.95490        0.22870
H         -6.31160        0.31280        0.07180
H         -6.14110        2.02950       -0.43440
H         -5.54480        2.75170        1.79690
H         -7.03420        1.74840        1.91750
H         -3.15130        1.33830        2.47880
H         -3.45710       -0.29310        3.12500
H         -4.35800       -0.99780        0.83550
