31

C         -0.07340       -2.03630       -1.18170
C          0.52620       -1.25130        0.01230
C          1.34230       -2.26370        0.85340
C         -0.63330       -0.67850        0.84290
O         -0.71650       -0.99280        2.06380
C         -1.69250        0.21890        0.28670
C         -2.92220        0.33640        0.96230
C         -3.92540        1.17250        0.47120
C         -3.69830        1.89820       -0.69570
N         -2.50900        1.78930       -1.34090
C         -1.51470        0.98110       -0.88560
C          1.49300       -0.13150       -0.40450
C          1.92560        0.81080        0.55140
C          2.81660        1.82430        0.19980
C          3.29190        1.89240       -1.10740
N          2.89260        0.97350       -2.02300
C          2.02400       -0.02470       -1.70990
H         -0.55780       -1.36310       -1.91730
H          0.70820       -2.62280       -1.71100
H         -0.84060       -2.75720       -0.82360
H          1.77010       -1.78210        1.75930
H          0.70230       -3.11180        1.18150
H          2.18570       -2.67690        0.25800
H         -3.11410       -0.22630        1.86740
H         -4.87100        1.25600        0.99120
H         -4.46660        2.55080       -1.08840
H         -0.59470        0.95420       -1.44340
H          1.57110        0.76280        1.57320
H          3.13870        2.54900        0.93640
H          3.98420        2.67270       -1.39400
H          1.75770       -0.72390       -2.48770
