29

N         -0.09520        2.37170        0.21680
C          0.95910        1.44320       -0.18650
C          0.45850       -0.03160       -0.33370
C          1.66460       -0.89440       -0.83560
C          2.85470       -0.90590        0.08930
O          3.80490       -0.10190       -0.10250
O          2.94120       -1.82360        1.13270
C         -0.65020       -0.14050       -1.43190
C         -2.05580        0.27770       -0.97700
C         -2.46890       -0.46750        0.28970
C         -1.47540       -0.20490        1.41890
C         -0.04990       -0.62060        1.02230
H          0.09970        3.30150       -0.22050
H         -0.02430        2.52400        1.24910
H          1.78950        1.49880        0.55230
H          1.38200        1.77570       -1.16230
H          1.34640       -1.94810       -0.99550
H          1.99770       -0.52220       -1.83040
H          2.22060       -2.51780        1.28690
H         -0.72820       -1.19480       -1.78090
H         -0.36700        0.46460       -2.32100
H         -2.77950        0.03460       -1.78500
H         -2.11640        1.37270       -0.81570
H         -3.47900       -0.12620        0.60310
H         -2.52420       -1.55930        0.08350
H         -1.78410       -0.79550        2.30850
H         -1.51580        0.86020        1.71810
H          0.64310       -0.33860        1.84450
H         -0.04790       -1.73150        0.96250
