18

C          3.83940        0.89590        0.26450
O          2.46440        0.52390        0.19940
C          2.00410       -0.79780        0.26950
O          2.81380       -1.75560        0.39820
C          0.56390       -1.08780        0.19370
C         -0.34860       -0.11880        0.05710
C         -1.79150       -0.39970       -0.01960
O         -2.22220       -1.58490        0.04210
O         -2.68040        0.66930       -0.16220
C         -4.08910        0.48940       -0.24430
H          4.50920        0.01770        0.37750
H          4.11420        1.43560       -0.66500
H          3.99190        1.57340        1.12960
H          0.25110       -2.12380        0.25190
H         -0.03620        0.91670       -0.00110
H         -4.57730        1.47940       -0.35360
H         -4.46500        0.00290        0.68070
H         -4.34190       -0.13590       -1.12670
