46

C          2.44690        3.12810        0.57030
C          1.77020        1.99800        0.33980
C          0.28970        1.93660        0.59620
C         -0.31230        0.71520       -0.12590
C          0.30520       -0.61620        0.39720
C         -0.27230       -1.77330       -0.45260
C         -1.79810       -1.84310       -0.31960
C         -2.51840       -0.52840       -0.72350
C         -2.64370       -0.40310       -2.25560
C         -3.86720       -0.51110       -0.07160
O         -4.79940       -1.21500       -0.43060
C         -3.95250        0.39830        1.10260
C         -2.52340        0.90940        1.27300
C         -1.86350        0.73120       -0.10520
C          1.90320       -0.57230        0.49770
C          2.31360       -0.59540        1.98850
C          2.56680       -1.80440       -0.12470
C          3.51020       -1.74090       -1.06430
C          3.97790       -0.45070       -1.56250
O          4.87210       -0.40070       -2.44760
C          3.39820        0.78220       -1.03230
C          2.44610        0.74660       -0.08450
H          1.93430        4.01940        0.91000
H          3.52100        3.17550        0.44500
H          0.11030        1.86710        1.69070
H         -0.19210        2.86450        0.21570
H         -0.02840        0.80970       -1.20040
H         -0.09190       -0.77450        1.42410
H          0.11360       -2.74810       -0.09080
H          0.01920       -1.65750       -1.51900
H         -2.17710       -2.68920       -0.93410
H         -2.03190       -2.09600        0.74010
H         -1.64120       -0.31700       -2.72410
H         -3.23670        0.49590       -2.53070
H         -3.15340       -1.29430       -2.68040
H         -4.64800        1.23510        0.87750
H         -4.28890       -0.15200        2.00760
H         -2.00550        0.29960        2.04320
H         -2.51810        1.97470        1.59100
H         -2.17910        1.61890       -0.70350
H          3.41920       -0.53080        2.09320
H          1.97340       -1.53530        2.47590
H          1.86510        0.25620        2.54340
H          2.31410       -2.78420        0.26150
H          3.95380       -2.65390       -1.44220
H          3.71910        1.72520       -1.45850
