32

C         -3.93610       -0.39090        0.27250
N         -3.17790        0.10700       -0.88280
C         -1.83840        0.63580       -0.54490
C         -1.96130        1.89650        0.32970
C         -0.91730       -0.45240        0.08420
C          0.57870       -0.31960       -0.29760
C          1.34830       -1.59350        0.11010
C          2.81100       -1.56260       -0.37850
C          3.40150       -0.14190       -0.45870
C          2.75620        0.79270        0.56680
C          1.24010        0.93970        0.32570
H         -3.39560       -1.20640        0.79710
H         -4.90750       -0.79780       -0.07930
H         -4.16100        0.43250        0.98090
H         -3.06940       -0.67810       -1.56720
H         -1.38180        0.96500       -1.50480
H         -2.16610        1.63460        1.38900
H         -2.78720        2.53790       -0.04520
H         -1.03500        2.50130        0.28910
H         -1.02820       -0.46950        1.19080
H         -1.25940       -1.44580       -0.28040
H          0.64550       -0.24150       -1.40660
H          0.85390       -2.49640       -0.31050
H          1.33270       -1.68970        1.21870
H          3.42800       -2.18010        0.31020
H          2.87360       -2.02970       -1.38570
H          3.23790        0.27280       -1.47800
H          4.49850       -0.18500       -0.28560
H          3.23940        1.79240        0.51560
H          2.93370        0.38660        1.58720
H          0.76520        1.18800        1.29990
H          1.07760        1.79780       -0.36170
