59

O          3.08740        0.27240        2.61030
C          3.65870        0.69540        1.56860
C          5.15480        0.60830        1.47460
C          5.61370        0.42190        0.01060
C          7.14620        0.39870       -0.08120
C          7.48320       -0.44420       -1.30560
C          6.26480       -1.32170       -1.58560
C          5.20530       -0.95240       -0.55220
C          5.04340        1.57580       -0.85600
C          3.55220        1.70410       -0.70960
O          2.88770        2.18560       -1.66710
N          2.88930        1.29310        0.50470
C          1.42330        1.34810        0.59880
C          0.81280        0.04380        0.06830
C         -0.72190        0.08740        0.00120
C         -1.37240        0.06530        1.40340
N         -2.84640       -0.06720        1.39040
C         -3.31210       -1.38490        0.91780
C         -4.80810       -1.52560        1.20270
N         -5.53130       -0.38830        0.61340
C         -6.73840       -0.58150       -0.15750
N         -7.18970       -1.83790       -0.43080
C         -8.32300       -2.04050       -1.15140
C         -9.04850       -0.95000       -1.62590
C         -8.58090        0.33090       -1.34080
N         -7.44300        0.49070       -0.61670
C         -5.03400        0.95880        0.93310
C         -3.52630        1.02860        0.67420
H          5.58510        1.54750        1.88540
H          5.51930       -0.23280        2.10510
H          7.58070       -0.09710        0.81610
H          7.58690        1.41700       -0.15780
H          7.67860        0.21970       -2.17630
H          8.38740       -1.06410       -1.11960
H          5.88080       -1.12070       -2.60990
H          6.52660       -2.39970       -1.50860
H          4.18980       -0.94820       -1.00490
H          5.21650       -1.71960        0.25400
H          5.49750        2.54220       -0.54700
H          5.29690        1.41540       -1.92720
H          1.12030        1.51470        1.65390
H          1.03380        2.21340        0.01950
H          1.14100       -0.81030        0.70000
H          1.19870       -0.13520       -0.95910
H         -1.04980       -0.79890       -0.57880
H         -1.03380        0.99540       -0.55720
H         -0.93860       -0.76780        1.99890
H         -1.11190        1.00010        1.94330
H         -3.14570       -1.50220       -0.17530
H         -2.77230       -2.19910        1.44940
H         -5.16010       -2.49840        0.80030
H         -4.97180       -1.52970        2.30220
H         -8.65950       -3.04820       -1.35500
H         -9.95350       -1.09440       -2.20150
H         -9.12140        1.19870       -1.69410
H         -5.23850        1.17890        2.00330
H         -5.53050        1.73980        0.31970
H         -3.14970        2.01260        1.03040
H         -3.34950        0.95630       -0.42200
