28

C         -1.08380       -1.91640       -1.18670
C         -1.13200       -1.02050        0.06480
N         -2.52860       -0.75960        0.48150
C         -3.06840        0.46500       -0.11620
C         -2.19300        1.67380        0.27340
O         -0.89180        1.29920        0.69820
C         -0.35500        0.31490       -0.16660
C          1.15640        0.26470        0.03240
C          1.87340        1.46890       -0.11270
C          3.26160        1.50130        0.04390
C          3.95970        0.33050        0.33850
C          3.27120       -0.87570        0.47060
C          1.88170       -0.91580        0.31550
H         -1.64160       -1.44790       -2.02470
H         -1.53760       -2.90540       -0.96440
H         -0.03620       -2.08280       -1.51230
H         -0.67380       -1.57220        0.91010
H         -3.15040       -1.56370        0.23000
H         -3.10490        0.36410       -1.22390
H         -4.10830        0.62570        0.24240
H         -2.68180        2.21320        1.11220
H         -2.12300        2.38650       -0.57770
H         -0.49840        0.63400       -1.22840
H          1.35290        2.38950       -0.34800
H          3.79640        2.43600       -0.06590
H          5.03510        0.35640        0.45800
H          3.81640       -1.78510        0.68840
H          1.40390       -1.87840        0.40570
