33

C         -2.94540        1.44130       -1.82670
N         -1.53800        1.75200       -1.55850
C         -0.92800        2.97090       -2.09820
C         -0.74800        0.85200       -0.75790
N         -1.30080       -0.28150       -0.25130
C         -0.56180       -1.13550        0.50490
N         -1.15520       -2.33480        1.03820
C         -0.34560       -3.24650        1.85220
C         -2.56370       -2.63360        0.76240
N          0.74280       -0.84620        0.75270
C          1.30980        0.28350        0.25300
N          2.69320        0.58280        0.52030
C          3.49170       -0.33730        1.33580
C          3.29100        1.80520       -0.02550
N          0.55790        1.12770       -0.50140
H         -3.50300        1.37390       -0.86870
H         -3.42660        2.22050       -2.45410
H         -3.01910        0.47080       -2.36140
H         -0.07560        2.70240       -2.75760
H         -0.55940        3.60560       -1.26480
H         -1.65270        3.56550       -2.69280
H         -0.93240       -4.12490        2.19350
H          0.03230       -2.71180        2.74920
H          0.51620       -3.61490        1.25640
H         -2.88270       -3.58600        1.23520
H         -3.20400       -1.81760        1.15920
H         -2.72010       -2.72070       -0.33360
H          3.52150       -1.33650        0.85200
H          4.53550        0.02050        1.45760
H          3.03770       -0.43330        2.34480
H          2.74490        2.69260        0.35860
H          4.35900        1.90440        0.26070
H          3.22870        1.78950       -1.13420
