14

N          2.60320       -0.56290        0.35360
C          1.64530       -0.26120       -0.66330
O          2.02240       -0.20920       -1.86510
C          0.22940       -0.01230       -0.31860
C         -0.72200        0.28520       -1.30850
N         -2.01430        0.50780       -0.95120
C         -2.40730        0.44870        0.34760
C         -1.46710        0.15370        1.33500
N         -0.17460       -0.06930        0.98050
H          2.33100       -0.61530        1.36000
H          3.60060       -0.73690        0.09780
H         -0.44440        0.34050       -2.35300
H         -3.44100        0.62920        0.61050
H         -1.76110        0.10210        2.37470
