56

C         -3.57150        0.77690        1.36270
C         -3.09470        0.39510       -0.06430
C         -3.64220        1.44060       -1.08410
C         -5.17900        1.44270       -1.18600
C         -5.75570        0.05560       -1.16340
O         -6.98270       -0.10660       -1.39620
C         -4.91170       -1.11850       -0.89210
C         -3.65280       -0.99110       -0.44390
C         -2.78010       -2.20440       -0.43520
C         -1.50610       -2.15980       -0.02420
C         -0.98450       -0.90980        0.62710
C         -1.52810        0.32400       -0.15690
C         -0.72890        1.59430        0.21200
C          0.75970        1.46950       -0.22970
C          1.35500        0.01300       -0.12050
C          1.33640       -0.68070       -1.52550
C          0.54630       -0.79830        0.90230
C          1.38720       -2.03420        1.20620
C          2.84180       -1.55400        1.04400
C          2.79260       -0.09160        0.51370
O          2.89190        0.75830        1.64160
C          3.95840        0.19550       -0.48840
C          5.34420        0.16930        0.17950
C          6.42610        0.40940       -0.83170
O          7.24210       -0.50860       -1.10880
O          6.54760        1.64450       -1.46220
H         -4.67770        0.83400        1.41530
H         -3.16730        1.76650        1.66140
H         -3.28040        0.02820        2.12320
H         -3.23110        1.22220       -2.09500
H         -3.32040        2.46700       -0.81070
H         -5.61720        2.03160       -0.35230
H         -5.47180        1.94150       -2.13510
H         -5.31180       -2.09900       -1.12450
H         -3.15830       -3.13750       -0.83660
H         -0.90300       -3.05100       -0.10610
H         -1.43730       -0.92350        1.63810
H         -1.33300        0.17180       -1.23680
H         -1.15770        2.49290       -0.27460
H         -0.77530        1.75680        1.31080
H          1.33330        2.20170        0.36780
H          0.84320        1.83260       -1.27720
H          1.81740       -0.03220       -2.28800
H          0.32600       -0.92320       -1.89070
H          1.88240       -1.64610       -1.51780
H          0.59010       -0.21010        1.85340
H          1.19470       -2.40500        2.23660
H          1.19560       -2.85240        0.48360
H          3.37150       -2.22720        0.33400
H          3.37700       -1.60710        2.01780
H          3.19560        1.65640        1.34960
H          3.96500       -0.55670       -1.30580
H          3.79190        1.19230       -0.95220
H          5.50670       -0.81810        0.66300
H          5.41850        0.95180        0.96320
H          5.92230        2.41040       -1.24200
