50

C          8.35080        1.09680       -2.68650
C          7.59900        0.93300       -1.75840
C          6.70120        0.73740       -0.65020
C          7.12380        1.02420        0.65330
C          6.24910        0.84290        1.72730
C          4.95320        0.36810        1.50570
C          4.52360        0.05800        0.20190
N          3.18800       -0.41100       -0.05350
C          2.42320       -1.17590        0.89440
N          3.06940       -2.02010        1.74480
C          2.39460       -2.80200        2.62460
N          1.03970       -2.76680        2.66670
C          0.33530       -1.94820        1.84380
C         -1.06150       -1.93470        1.90790
C         -1.80000       -1.09660        1.06750
C         -1.13100       -0.21440        0.19760
C          0.26570       -0.24370        0.11100
C          1.01270       -1.11620        0.92480
O         -1.83600        0.70570       -0.58010
C         -2.54030        1.80090        0.00000
C         -3.38830        2.48470       -1.06730
O         -4.39240        1.59840       -1.52060
C         -5.62150        1.81440       -0.85070
C         -6.31520        0.47260       -0.63260
O         -5.80900       -0.12990        0.54730
C         -5.45620       -1.48460        0.34490
C         -3.97330       -1.59530        0.00410
O         -3.19480       -1.15360        1.11400
C          5.40220        0.26180       -0.87430
H          9.01080        1.24050       -3.50120
H          8.12530        1.39390        0.83780
H          6.57340        1.07760        2.73290
H          4.28390        0.26270        2.34930
H          2.80890       -0.29920       -1.02060
H          2.93800       -3.46040        3.28800
H         -1.57840       -2.59200        2.59670
H          0.75020        0.44750       -0.56490
H         -3.19480        1.45290        0.82740
H         -1.80800        2.52810        0.41170
H         -3.78610        3.45640       -0.69010
H         -2.73350        2.73620       -1.92860
H         -6.26380        2.45310       -1.49460
H         -5.51920        2.31690        0.14120
H         -7.40190        0.65210       -0.48780
H         -6.19860       -0.13710       -1.56030
H         -5.63660       -2.03220        1.29430
H         -6.07860       -1.99950       -0.42350
H         -3.75190       -0.98890       -0.89830
H         -3.72660       -2.65630       -0.21630
H          5.07540        0.04160       -1.88410
