36

C         -0.91060        3.99030        0.65480
O         -0.84920        2.58030        0.45430
C         -0.33860        1.67360        1.39240
O          0.12280        2.08420        2.49260
C         -0.28670        0.19680        1.08110
C         -1.46060       -0.24740        0.21140
C         -1.62630        0.20850       -1.11340
C         -2.70750       -0.22690       -1.88520
C         -3.63810       -1.11850       -1.34960
C         -3.49180       -1.57440       -0.03880
C         -2.41340       -1.14210        0.73830
C          1.11000       -0.23140        0.53790
C          1.23540       -1.77870        0.45990
C          2.15950       -2.23780       -0.67730
C          3.32520       -1.26720       -0.85500
C          2.82690        0.16260       -1.15230
N          1.41850        0.37760       -0.76960
H         -0.32150        4.49530       -0.13800
H         -0.51000        4.29380        1.64470
H         -1.96680        4.32150        0.58150
H         -0.38570       -0.31240        2.06720
H         -0.93460        0.91050       -1.55460
H         -2.82530        0.13060       -2.90000
H         -4.47420       -1.45390       -1.94960
H         -4.21490       -2.26450        0.37650
H         -2.32110       -1.51280        1.75150
H          1.86680        0.12410        1.27780
H          1.63350       -2.15420        1.42820
H          0.24890       -2.26540        0.30840
H          1.58220       -2.28970       -1.62710
H          2.54720       -3.25590       -0.45740
H          3.93340       -1.26170        0.07650
H          3.98000       -1.61820       -1.68180
H          2.92150        0.35610       -2.24250
H          3.48290        0.89420       -0.62820
H          1.28220        1.41300       -0.70780
