25

C         -3.28800       -1.30380       -0.90600
C         -2.54900       -0.21930       -0.16980
C         -3.25860        0.78330        0.49840
C         -2.57460        1.78430        1.17790
C         -1.18080        1.78280        1.18910
N         -0.47090        0.80510        0.53750
C          0.90480        0.81390        0.55560
O          1.52590        1.72440        1.17350
C          1.63290       -0.19140       -0.11440
C          3.11750       -0.22850       -0.12640
N          3.91820        0.66960        0.48480
N          5.15070        0.26610        0.22410
N          5.09940       -0.82900       -0.51310
N          3.84680       -1.17250       -0.75510
C          0.91240       -1.18160       -0.78700
N         -0.43990       -1.16160       -0.78530
C         -1.14000       -0.19310       -0.13990
H         -3.02210       -2.29370       -0.47900
H         -4.38870       -1.17510       -0.82900
H         -3.00890       -1.28340       -1.98050
H         -4.34160        0.79190        0.49470
H         -3.12220        2.56130        1.69580
H         -0.67950        2.57800        1.72850
H          5.93450       -1.35160       -0.85740
H          1.42140       -1.97610       -1.31700
