81

C          0.24160        1.25480        3.10260
N         -0.52070        0.47100        2.11270
C         -0.00430       -0.90990        2.03540
C         -0.66600        1.18920        0.80720
C          0.55430        1.08650       -0.10720
O          1.64450        1.41770        0.33590
C          0.47520        0.69040       -1.57020
C          1.41800       -0.44790       -1.86300
O          1.24160       -1.56880       -1.31260
N          2.52990       -0.25100       -2.74810
C          3.59700       -1.24140       -2.90440
N          4.42460       -1.33320       -1.69260
C          5.10000       -0.06130       -1.40450
C          6.08290       -0.24520       -0.24490
C          6.83360        1.06040        0.05600
C          7.66240        1.00000        1.35350
C          9.00320        0.23630        1.21140
N          9.92110        0.59390        2.29530
C          8.80510       -1.25690        1.21650
O          8.27170       -1.81990        2.20930
O          9.21860       -2.03350        0.13690
C         -0.92200        0.34990       -2.02780
O         -1.22380        0.54940       -3.19610
C         -1.94260       -0.17850       -1.03190
O         -1.48720       -1.39550       -0.50000
C         -3.32290       -0.42690       -1.66230
O         -3.38360       -1.16060       -2.85150
C         -4.48410       -0.03870       -1.06640
C         -5.80370       -0.18160       -1.74680
O         -5.86460       -0.57670       -2.94300
C         -7.05820        0.15750       -1.01860
C         -8.29130        0.29280       -1.70230
O         -8.35910        0.15140       -3.08870
C         -9.46150        0.57800       -0.98830
C         -9.42590        0.72390        0.39510
C         -8.21990        0.59990        1.08050
C         -7.02030        0.34520        0.38690
C         -5.71630        0.15170        1.16110
C         -5.60410       -1.34360        1.52610
O         -5.74770        0.88440        2.36610
C         -4.50930        0.64300        0.29470
C         -3.16510        0.55660        1.04760
C         -2.02180        0.88790        0.08640
H          0.14770        0.79060        4.10780
H         -0.16830        2.28320        3.19510
H          1.31800        1.30740        2.83470
H         -0.81970       -1.60120        1.75640
H          0.34050       -1.26660        3.03070
H          0.84880       -1.00720        1.33460
H         -0.73670        2.27860        1.03340
H          0.80160        1.58330       -2.14780
H          2.59100        0.63100       -3.30490
H          4.23390       -0.97140       -3.77530
H          3.15240       -2.23580       -3.12390
H          3.81230       -1.58030       -0.88050
H          4.35270        0.71740       -1.13080
H          5.66430        0.28050       -2.30110
H          6.80450       -1.03940       -0.52410
H          5.52240       -0.57180        0.65840
H          6.08700        1.87690        0.17310
H          7.48570        1.32980       -0.80340
H          7.89210        2.05100        1.63580
H          7.05330        0.57900        2.18350
H          9.48190        0.53190        0.25160
H          9.43250        0.49010        3.21520
H         10.18510        1.60130        2.19470
H          9.65040       -1.61750       -0.67930
H         -1.39180       -2.04530       -1.24500
H         -2.56400       -1.57280       -3.27970
H         -9.23300        0.24700       -3.59280
H        -10.40580        0.68010       -1.50810
H        -10.33840        0.92890        0.94010
H         -8.22730        0.69630        2.15860
H         -6.54050       -1.69050        2.01430
H         -5.43200       -1.96960        0.62510
H         -4.78390       -1.52120        2.25090
H         -5.85710        1.84520        2.13750
H         -4.67910        1.72390        0.08300
H         -3.00300       -0.45670        1.46540
H         -3.16970        1.28460        1.88840
H         -2.30710        1.84450       -0.41770
