48

N         -2.42300       -2.24820       -1.94460
C         -3.30180       -1.12170       -1.95370
O         -4.00400       -0.89140       -2.97400
C         -3.41930       -0.21900       -0.75230
C         -4.09830       -0.92690        0.42240
C         -2.98760       -1.24870        1.41680
C         -1.83810       -0.31000        1.07740
N         -2.09860        0.16870       -0.27240
C         -1.23780        1.05510       -1.02010
O         -1.73680        1.75840       -1.94080
C          0.25820        1.15310       -0.77990
C          0.61150        1.85950        0.54710
C         -0.07130        3.19060        0.68080
C          0.09400        4.28430       -0.13970
N         -0.68480        5.29050        0.30500
C         -1.30390        4.77980        1.39140
N         -0.94890        3.50650        1.64540
N          0.88050       -0.17420       -0.85140
C          2.29760       -0.35790       -0.98430
O          3.06070        0.63950       -1.10670
C          2.88050       -1.74410       -0.91690
C          3.25020       -2.13340        0.53660
C          4.76170       -2.41500        0.56520
C          5.17590       -2.20300       -0.83500
O          6.35650       -2.34530       -1.24830
N          4.11400       -1.82030       -1.67830
H         -1.84070       -2.47010       -1.10760
H         -2.35380       -2.86700       -2.78270
H         -4.00300        0.69100       -1.01860
H         -4.64510       -1.84740        0.11920
H         -4.82300       -0.23180        0.90130
H         -2.66250       -2.30360        1.28110
H         -3.32960       -1.10790        2.46520
H         -1.83880        0.54850        1.78120
H         -0.87360       -0.85470        1.13560
H          0.68350        1.76680       -1.60640
H          0.36240        1.21700        1.41400
H          1.70640        2.03570        0.59380
H          0.73850        4.34760       -1.00640
H         -2.00870        5.33690        1.99420
H         -1.28540        2.90210        2.42720
H          0.27970       -1.02880       -0.86410
H          2.15670       -2.47740       -1.33530
H          3.00120       -1.32760        1.26310
H          2.69100       -3.04730        0.83470
H          4.96920       -3.46190        0.87420
H          5.28980       -1.70060        1.23250
H          4.19870       -1.64610       -2.70480
