17

C          1.57030        0.06560        0.72770
C          0.73820       -0.45710       -0.45380
O          0.53720       -1.84000       -0.31190
C         -0.63070        0.25150       -0.59980
N         -0.44800        1.64660       -1.01780
C         -1.48290        0.13890        0.64910
O         -1.67170        1.13950        1.39140
O         -2.07900       -1.07270        0.98820
H          1.79930        1.14400        0.60510
H          2.53640       -0.48020        0.77370
H          1.03710       -0.09150        1.68880
H          1.31360       -0.26790       -1.39080
H          1.39530       -2.28320       -0.54320
H         -1.18140       -0.26500       -1.41760
H         -1.38390        2.04740       -1.25900
H         -0.06390        2.21480       -0.22890
H         -1.98550       -1.89060        0.39860
