39

C         -3.75670        1.54170       -0.12480
C         -2.26090        1.55950       -0.22860
O         -1.60290        1.98460        0.70770
C         -1.58000        1.04010       -1.47890
C         -0.71160       -0.22990       -1.26120
C         -1.50570       -1.26440       -0.47120
C         -2.34030       -2.17380       -1.14630
C         -3.09460       -3.10840       -0.43080
C         -3.02910       -3.14200        0.96400
C         -2.21080       -2.23940        1.64680
C         -1.45450       -1.30290        0.93650
C          0.73710       -0.09380       -0.73300
C          1.36470        1.12170       -0.33820
O          0.70390        2.33730       -0.51670
C          2.67540        1.08400        0.20210
C          3.33660        2.22320        0.71570
C          4.63560        2.12140        1.22280
C          5.29290        0.89190        1.23300
C          4.65060       -0.24490        0.74420
C          3.34910       -0.15700        0.23750
O          2.76170       -1.25310       -0.21130
C          1.52540       -1.27170       -0.68520
O          1.06470       -2.36880       -1.10150
H         -4.08810        1.94840        0.85450
H         -4.19440        2.15980       -0.93620
H         -4.12380        0.49820       -0.22030
H         -1.01960        1.84230       -1.99690
H         -2.37860        0.76620       -2.20430
H         -0.57530       -0.63620       -2.28970
H         -2.41100       -2.15600       -2.22670
H         -3.73310       -3.80510       -0.95830
H         -3.61500       -3.86550        1.51590
H         -2.16440       -2.26330        2.72780
H         -0.83190       -0.60670        1.48390
H          1.12000        3.24870       -0.39660
H          2.87040        3.19420        0.76080
H          5.13240        2.99980        1.61480
H          6.29850        0.81870        1.62680
H          5.16350       -1.19850        0.76200
