21

C         -3.12450        0.39210       -0.03170
N         -1.81550       -0.25240       -0.01900
C         -1.55780       -1.58370       -0.04830
N         -0.22970       -1.87330       -0.03180
C          0.34290       -0.65330        0.01120
C         -0.60140        0.31950        0.01760
C         -0.22830        1.65730        0.04380
O         -1.08520        2.58090        0.05020
N          1.10620        1.94600        0.05750
C          2.05420        0.95120        0.04740
O          3.27600        1.26620        0.04050
N          1.67730       -0.37490        0.04170
C          2.67500       -1.45090       -0.00760
H         -3.93200       -0.36990       -0.06540
H         -3.21220        1.04400       -0.92600
H         -3.24960        1.00350        0.88640
H         -2.32800       -2.34340       -0.08320
H          1.41240        2.94580        0.06910
H          2.99950       -1.60890       -1.05750
H          2.26150       -2.40190        0.39080
H          3.55920       -1.19410        0.61410
