102

C        -12.24010        4.59420       -1.40020
C        -13.40820        4.11570       -0.53810
C        -13.19840        2.69490        0.00720
C        -12.08280        2.62860        1.06450
C        -12.03840        1.27890        1.80390
C        -11.79380        0.05330        0.90440
C        -10.45350        0.11600        0.15700
C        -10.17800       -1.19820       -0.58860
C         -8.80290       -1.20980       -1.27500
C         -8.72740       -0.23820       -2.46600
C         -7.49070       -0.46990       -3.35140
C         -6.17140       -0.08910       -2.66970
O         -5.79910       -1.09440       -1.74930
C         -4.53130       -0.81280       -1.18670
C         -3.44740       -1.62060       -1.90250
O         -2.17930       -1.34120       -1.33930
C         -1.81750       -2.34100       -0.40870
C         -0.51680       -1.94170        0.28460
O          0.50820       -1.72980       -0.66880
C          1.31600       -2.88220       -0.79480
C          2.32180       -2.67500       -1.92530
O          3.09620       -1.51290       -1.69300
C          4.32550       -1.84910       -1.08280
C          5.04970       -0.57410       -0.67120
O          4.26180        0.12840        0.26860
C          4.97450        1.23720        0.78330
C          5.62440        0.87210        2.12030
O          6.24670        2.00820        2.69200
C          7.61040        2.09160        2.31920
C          8.49170        1.43430        3.37840
O          9.84680        1.58580        3.00980
C         10.68660        0.86160        3.89000
C         11.01680       -0.51620        3.30850
O         11.49670       -0.39420        1.98210
C         12.90940       -0.39560        1.96240
C         13.39620       -0.11540        0.54200
O         12.87660       -1.07460       -0.36150
C         13.77420       -2.15440       -0.54230
C         14.67680       -1.89790       -1.75050
O         15.49160       -3.01190       -1.99410
H        -12.49610        5.57280       -1.85790
H        -12.03350        3.86680       -2.21390
H        -11.32700        4.72930       -0.78430
H        -13.56970        4.82830        0.29970
H        -14.32720        4.11950       -1.16340
H        -14.15300        2.35770        0.46690
H        -12.96690        2.01180       -0.83790
H        -12.25710        3.42210        1.82370
H        -11.09660        2.83430        0.59970
H        -11.23780        1.32430        2.57420
H        -12.99910        1.13390        2.34450
H        -11.80120       -0.84740        1.55660
H        -12.62740       -0.06380        0.17980
H        -10.48680        0.94700       -0.57710
H         -9.63340        0.30880        0.88290
H        -10.97640       -1.38140       -1.34090
H        -10.20370       -2.03800        0.14000
H         -8.02140       -0.95750       -0.52690
H         -8.60970       -2.24370       -1.63590
H         -9.62910       -0.37400       -3.10240
H         -8.72680        0.81200       -2.10320
H         -7.45150       -1.52820       -3.69050
H         -7.60250        0.16050       -4.26060
H         -5.39670        0.01430       -3.46330
H         -6.29060        0.89260       -2.15700
H         -4.26520        0.27150       -1.19220
H         -4.55930       -1.12150       -0.12100
H         -3.41950       -1.31040       -2.96800
H         -3.71330       -2.70500       -1.89860
H         -2.60190       -2.46280        0.37260
H         -1.66640       -3.31490       -0.92570
H         -0.25590       -2.69610        1.06500
H         -0.68790       -0.98520        0.82290
H          0.70060       -3.77750       -1.04020
H          1.87020       -3.07180        0.15140
H          1.75770       -2.52790       -2.87090
H          2.93210       -3.59890       -2.06650
H          4.17250       -2.47370       -0.17300
H          4.96970       -2.40250       -1.80280
H          5.21600        0.04920       -1.57910
H          6.03520       -0.85960       -0.23720
H          5.73440        1.64600        0.07580
H          4.24620        2.05620        0.96320
H          6.31650        0.00660        2.00020
H          4.82560        0.53580        2.81490
H          7.82350        1.65520        1.31470
H          7.88160        3.16700        2.25710
H          8.30230        1.93380        4.35550
H          8.21530        0.35880        3.45540
H         11.63090        1.43240        4.00870
H         10.26510        0.74800        4.91730
H         11.71610       -1.05620        3.99050
H         10.08810       -1.12340        3.28140
H         13.29990       -1.38500        2.28990
H         13.32000        0.39580        2.62970
H         14.50930       -0.04780        0.52460
H         13.02040        0.88400        0.23540
H         14.38770       -2.37550        0.36250
H         13.17300       -3.06640       -0.74350
H         15.30140       -0.99130       -1.58490
H         14.04520       -1.71830       -2.64630
H         16.21170       -2.99150       -1.31070
