40

C         -2.52520        3.03280        0.34890
N         -2.70190        1.60200        0.61170
C         -2.56560        0.80560       -0.61760
C         -1.09240        0.48820       -0.92480
C         -0.37590       -0.25290        0.22750
O          1.00920       -0.42440       -0.08370
C          1.98760        0.58640       -0.10150
C          1.73230        1.89200        0.36650
C          2.73470        2.86390        0.33160
C          4.00000        2.54860       -0.16350
C          4.26900        1.25890       -0.62470
C          3.26970        0.27170       -0.59570
C          3.56530       -1.11440       -1.09620
C         -0.98710       -1.61800        0.45520
C         -0.83480       -2.63830       -0.50200
C         -1.40670       -3.89640       -0.29070
C         -2.13420       -4.14840        0.87510
C         -2.29050       -3.14280        1.83230
C         -1.71980       -1.88310        1.62630
H         -1.50460        3.23940       -0.03410
H         -3.28210        3.40060       -0.37850
H         -2.65020        3.59650        1.29730
H         -3.67730        1.47280        0.96970
H         -3.11810       -0.15230       -0.49700
H         -3.02500        1.32420       -1.48940
H         -0.56010        1.43280       -1.15570
H         -1.04600       -0.12620       -1.84990
H         -0.46210        0.33830        1.16450
H          0.76700        2.17070        0.76270
H          2.53010        3.86420        0.69130
H          4.77430        3.30450       -0.18850
H          5.25750        1.03160       -1.00440
H          3.40810       -1.84860       -0.27810
H          2.88600       -1.35970       -1.93980
H          4.61340       -1.20720       -1.45260
H         -0.27140       -2.46000       -1.40950
H         -1.28540       -4.67650       -1.03110
H         -2.57670       -5.12280        1.03670
H         -2.85520       -3.33920        2.73450
H         -1.85590       -1.11450        2.37680
