47

C          2.03410        3.13950       -2.45720
C          1.38610        1.95190       -1.75270
C          2.43140        0.93050       -1.30910
O          1.77380       -0.15060       -0.65610
C          2.41280       -1.26740       -0.09290
C          3.81230       -1.42230       -0.14910
C          4.43290       -2.52360        0.45410
N          5.85440       -2.67060        0.39430
C          3.65580       -3.47650        1.12040
C          2.26830       -3.33770        1.17830
C          1.63230       -2.24470        0.56480
C          0.15790       -2.12240        0.62980
O         -0.48410       -2.69610        1.55250
O         -0.52190       -1.37800       -0.34120
C         -1.87750       -0.96060       -0.21060
C         -1.97280        0.19700        0.80360
N         -3.23090        0.98190        0.72370
C         -4.46780        0.16900        0.75900
C         -4.60860       -0.59530        2.07590
C         -3.22300        1.94610       -0.40090
C         -2.67170        3.28780        0.06910
H          1.24900        3.86150       -2.76580
H          2.74160        3.65480       -1.77300
H          2.58050        2.79970       -3.36280
H          0.66490        1.46550       -2.44510
H          0.82530        2.31630       -0.86450
H          3.14480        1.41130       -0.60450
H          2.98160        0.54930       -2.19700
H          4.42710       -0.68850       -0.65250
H          6.32690       -3.48710        0.84250
H          6.44530       -1.96450       -0.09890
H          4.12540       -4.32990        1.59330
H          1.68940       -4.09490        1.69280
H         -2.50810       -1.81910        0.10500
H         -2.22890       -0.63300       -1.20920
H         -1.85680       -0.20780        1.83090
H         -1.10160        0.87260        0.65560
H         -5.35290        0.83970        0.69100
H         -4.51960       -0.53050       -0.10290
H         -4.46770        0.09420        2.93520
H         -5.62360       -1.04110        2.13950
H         -3.86870       -1.41950        2.13810
H         -2.61190        1.58600       -1.25620
H         -4.24750        2.12900       -0.79530
H         -3.28270        3.67510        0.91200
H         -2.70780        4.01980       -0.76520
H         -1.61780        3.18330        0.40110
