62

C          6.34930        1.19720        2.53310
C          5.69970       -0.17100        2.34610
C          4.37830       -0.05660        1.57710
C          3.71600       -1.43200        1.41330
C          2.51980       -1.42780        0.43870
C          1.28590       -0.56220        0.84980
C          0.81690       -0.91790        2.27250
O          1.58940        0.81360        0.83180
C          0.13540       -0.83270       -0.11010
C          0.20140       -0.54750       -1.42220
C         -0.98370       -0.76780       -2.34180
C         -0.58760       -1.69660       -3.49430
O         -1.71440       -2.39760       -3.95600
C         -0.06980       -0.78090       -4.60720
C         -0.55070        0.64050       -4.29010
O         -1.27570        1.16220       -5.37350
C         -1.43720        0.52520       -3.04130
C         -1.40460        1.80650       -2.17220
C         -2.15250        1.64240       -0.87610
C         -3.47460        1.42030       -0.84140
C         -4.20100        1.22930        0.46100
C         -3.81040       -0.10280        1.11980
C         -4.58770       -0.35520        2.41820
C         -4.19690        0.60620        3.49940
O         -3.01880        0.61040        3.94730
O         -5.13940        1.49030        4.01480
H          6.56670        1.65900        1.54640
H          7.30330        1.08280        3.08960
H          5.67850        1.86710        3.11220
H          5.51350       -0.62070        3.34590
H          6.40300       -0.82830        1.78960
H          3.69960        0.61680        2.14160
H          4.57430        0.38450        0.57500
H          4.46910       -2.14140        1.00480
H          3.41190       -1.83020        2.40420
H          2.18570       -2.48340        0.32540
H          2.88780       -1.11070       -0.56140
H          0.65030       -2.01250        2.37110
H         -0.13380       -0.39170        2.50960
H          1.56250       -0.59460        3.02850
H          2.01880        1.03170       -0.03570
H         -0.78440       -1.25990        0.28190
H          1.10870       -0.12600       -1.84470
H         -1.83780       -1.20160       -1.77270
H          0.20680       -2.42170       -3.19440
H         -1.87530       -3.13440       -3.31020
H          1.04260       -0.80290       -4.61870
H         -0.42550       -1.12350       -5.60450
H          0.34270        1.27730       -4.08540
H         -1.36390        2.13750       -5.21150
H         -2.48770        0.36570       -3.37840
H         -1.84900        2.65160       -2.74100
H         -0.35360        2.08310       -1.93910
H         -1.59190        1.70550        0.05280
H         -4.04450        1.38760       -1.76560
H         -3.97130        2.08070        1.13800
H         -5.29430        1.23260        0.26070
H         -2.71970       -0.12020        1.33350
H         -4.02910       -0.93300        0.41260
H         -4.37980       -1.38810        2.77100
H         -5.67950       -0.28010        2.22240
H         -4.89120        2.14570        4.74620
