60

N         -6.83300       -4.17370        2.05200
C         -7.03900       -3.14760        1.55810
C         -7.29500       -1.87170        0.94400
C         -8.58130       -1.58120        0.42950
C         -8.84340       -0.33920       -0.17760
C         -7.80240        0.58470       -0.24880
N         -7.83680        1.81020       -0.80110
C         -6.59380        2.32270       -0.65220
C         -5.77230        1.41680        0.01170
C         -4.31110        1.58130        0.30360
C         -3.46800        0.91360       -0.79040
C         -1.96060        1.12290       -0.58230
C         -1.42530        0.37240        0.65880
N          0.04870        0.25820        0.69200
C          0.57670       -0.80200       -0.20430
C          1.95570       -0.47110       -0.80310
N          2.79170        0.23710        0.17590
C          4.19560       -0.07160        0.29550
C          4.81680       -0.12570        1.57310
C          6.18710       -0.41880        1.69680
C          6.91120       -0.65100        0.53250
O          8.18550       -0.93580        0.42390
C          8.45140       -1.07360       -0.86330
C          9.78430       -1.39700       -1.39260
N         10.88890       -1.58300       -0.50760
O          9.95700       -1.51170       -2.63550
C          7.30400       -0.87070       -1.62760
C          6.32360       -0.60050       -0.70120
C          4.97120       -0.31410       -0.86350
C          2.22070        1.36020        0.93360
C          0.74340        1.55470        0.58980
C         -6.55730        0.30650        0.25270
C         -6.26240       -0.91670        0.85500
H         -9.37470       -2.31560        0.49630
H         -9.82220       -0.11130       -0.57930
H         -8.65110        2.27040       -1.26550
H         -6.29470        3.29720       -1.01570
H         -4.09150        1.12720        1.29250
H         -4.06770        2.66450        0.35940
H         -3.69240       -0.17500       -0.83280
H         -3.74580        1.35210       -1.77430
H         -1.43940        0.76800       -1.49560
H         -1.75420        2.21080       -0.48460
H         -1.75740        0.90440        1.57590
H         -1.87220       -0.64570        0.70850
H          0.67290       -1.73340        0.39360
H         -0.12110       -1.02900       -1.03930
H          1.82090        0.17620       -1.69680
H          2.44170       -1.41470       -1.13530
H          4.24080        0.03940        2.47280
H          6.66260       -0.46530        2.66780
H         10.77080       -1.49320        0.52590
H         11.83390       -1.81260       -0.88780
H          7.20310       -0.91510       -2.70430
H          4.53790       -0.26530       -1.85440
H          2.29840        1.15680        2.02230
H          2.78070        2.29210        0.70310
H          0.30380        2.28540        1.30400
H          0.65570        1.97050       -0.43840
H         -5.27070       -1.12320        1.23930
