25

O          3.53400       -1.94690        0.26170
C          2.99050       -0.91590       -0.21540
O          3.36970       -0.47470       -1.48130
C          1.94360       -0.18360        0.58810
O          2.38080        1.12350        0.86790
C          0.56510       -0.18840       -0.13060
O          0.18610       -1.50490       -0.45610
C         -0.53780        0.52090        0.71200
O         -0.91410       -0.27880        1.80640
C         -1.80690        0.91940       -0.09150
O         -1.52950        1.98720       -0.96500
C         -2.50570       -0.23760       -0.83990
O         -2.83940       -1.28190        0.03420
H          2.95750        0.34690       -1.90550
H          1.83150       -0.70930        1.56140
H          2.38970        1.63270        0.01590
H          0.68820        0.36550       -1.08360
H          0.18030       -2.03790        0.38120
H         -0.12070        1.48320        1.09410
H         -0.27190       -0.09620        2.54090
H         -2.54170        1.30660        0.64860
H         -1.05720        1.62460       -1.75810
H         -1.85250       -0.63370       -1.64440
H         -3.42550        0.14720       -1.33650
H         -3.61430       -0.96770        0.56940
