31

O         -0.19400        4.19110       -0.85910
C         -0.20990        2.93880       -0.98300
N         -0.44610        2.28150       -2.21030
C         -0.37510        0.90270       -1.87910
O         -0.56230       -0.01100       -2.72660
C         -0.07550        0.67010       -0.41290
C          1.26740       -0.01720       -0.15220
C          2.24320       -0.18300       -1.16070
C          3.47270       -0.78180       -0.86930
C          3.75780       -1.20500        0.42950
C          2.81790       -1.02140        1.44410
C          1.58720       -0.42350        1.16010
C         -1.24410       -0.09760        0.20750
C         -2.27150        0.55830        0.91980
C         -3.34490       -0.16590        1.44720
C         -3.41990       -1.54700        1.25990
C         -2.42580       -2.20750        0.53700
C         -1.35030       -1.48980        0.00680
N          0.00680        2.04290        0.09750
H         -0.64340        2.70970       -3.14170
H          2.06970        0.15140       -2.17400
H          4.20910       -0.91130       -1.65200
H          4.71140       -1.66630        0.65170
H          3.04490       -1.33730        2.45410
H          0.88010       -0.27670        1.96710
H         -2.25530        1.62940        1.06940
H         -4.12330        0.34640        1.99780
H         -4.25320       -2.10430        1.66820
H         -2.49040       -3.27680        0.38260
H         -0.59750       -2.02110       -0.56220
H          0.21440        2.32200        1.08280
