31

N          4.91480       -0.55730       -0.11250
C          3.58100       -1.05790       -0.12500
O          3.19910       -1.79390       -1.07490
O          2.71290       -0.73160        0.92260
C          1.34610       -1.14080        0.96850
C          0.48120       -0.29730        0.01120
C          0.47920        1.18570        0.41800
O         -0.30940        1.93890       -0.49960
C         -0.49350        3.31860       -0.38050
N         -1.30060        4.00440       -1.33360
O          0.04580        3.96160        0.56060
C         -0.93210       -0.84920       -0.05950
C         -1.43960       -1.32910       -1.28110
C         -2.74070       -1.83530       -1.35780
C         -3.54840       -1.86850       -0.21890
C         -3.05670       -1.39560        0.99970
C         -1.75660       -0.88830        1.08250
H          5.23910        0.05170        0.67080
H          5.57670       -0.79290       -0.88500
H          1.26910       -2.22030        0.71030
H          0.98310       -1.02080        2.01120
H          0.94390       -0.35590       -0.99870
H          0.07340        1.30700        1.44600
H          1.52050        1.57590        0.40470
H         -1.44850        5.03540       -1.25910
H         -1.75110        3.47820       -2.11450
H         -0.83030       -1.31170       -2.17610
H         -3.12300       -2.20200       -2.30160
H         -4.55530       -2.26060       -0.28070
H         -3.68370       -1.42170        1.88160
H         -1.39630       -0.52670        2.03660
