64

C         -6.47360        3.33270        1.50400
C         -5.82260        1.99670        1.36920
N         -5.52270        1.43210        0.18470
C         -4.94660        0.24770        0.49360
C         -4.92530        0.12460        1.88860
N         -5.46970        1.23460        2.41620
C         -4.36720       -0.96360        2.76120
C         -4.21040       -2.28460        2.03410
N         -3.18720       -2.13880        1.00320
C         -1.80550       -2.43260        1.29970
O         -1.52550       -3.35300        2.11550
C         -0.70380       -1.67260        0.66430
C         -0.87520       -0.32550        0.30270
C          0.16780        0.38600       -0.29650
C          1.40850       -0.23160       -0.52350
N          2.49290        0.46990       -1.15110
C          2.90210        1.80050       -0.78900
O          2.15080        2.53520       -0.09260
C          4.21360        2.32620       -1.22930
C          4.26620        3.61730       -1.78170
C          5.46840        4.13380       -2.26790
C          6.63380        3.37140       -2.20440
C          6.60610        2.09570       -1.63840
C          5.40770        1.56270       -1.13120
C          5.44840        0.24110       -0.45850
C          5.97540       -0.87740       -1.12680
C          5.99660       -2.12740       -0.50050
C          5.50070       -2.26930        0.79820
C          4.98760       -1.16020        1.47540
C          4.96500        0.09170        0.85370
C          1.57710       -1.57780       -0.17170
C          0.53570       -2.28940        0.42950
C         -3.59810       -1.78690       -0.32650
C         -3.13700       -2.56470       -1.40420
C         -3.52040       -2.27140       -2.71070
C         -4.37130       -1.19960       -2.96020
C         -4.83600       -0.41410       -1.90470
C         -4.46160       -0.68600       -0.57110
H         -7.43710        3.22340        2.04390
H         -6.66720        3.77030        0.50200
H         -5.80860        4.01390        2.07450
H         -5.59010        1.46070        3.42900
H         -3.38360       -0.63640        3.16210
H         -5.05170       -1.11510        3.62340
H         -5.18090       -2.59350        1.58460
H         -3.92640       -3.07480        2.76200
H         -1.81200        0.18250        0.49150
H         -0.00620        1.40920       -0.60050
H          3.11300       -0.07860       -1.78850
H          3.36790        4.21810       -1.85880
H          5.49460        5.12530       -2.70140
H          7.56410        3.77420       -2.58370
H          7.52860        1.53160       -1.57190
H          6.35280       -0.78470       -2.13770
H          6.39490       -2.98720       -1.02360
H          5.51560       -3.23820        1.28020
H          4.60690       -1.27050        2.48250
H          4.57080        0.94340        1.39410
H          2.52330       -2.07210       -0.35350
H          0.69380       -3.32700        0.69670
H         -2.48430       -3.41020       -1.22670
H         -3.16030       -2.87940       -3.53060
H         -4.67050       -0.97300       -3.97550
H         -5.49200        0.41460       -2.13970
