52

C         -6.72490        2.87950        0.30910
C         -6.21230        1.58100        0.92530
C         -5.47520        0.72730       -0.11110
N         -5.03090       -0.53560        0.49850
C         -3.67660       -0.44520        1.07410
C         -2.56660       -0.67760        0.02060
O         -2.65170       -1.96910       -0.52970
C         -1.17610       -0.44600        0.62740
O         -0.17570       -0.58580       -0.38270
C          0.83120       -1.56390       -0.41740
C          0.67470       -2.80780        0.22780
C          1.67030       -3.78210        0.14170
C          2.82680       -3.53730       -0.59520
C          2.99380       -2.31590       -1.24750
C          2.01040       -1.31440       -1.15860
C          2.26000       -0.01850       -1.84050
O          2.81360       -0.02530       -2.97350
C          1.92540        1.31600       -1.21600
C          2.42450        1.44320        0.23350
C          3.90990        1.20250        0.34950
C          4.82240        2.11030       -0.21440
C          6.19800        1.87910       -0.11680
C          6.67240        0.74360        0.54540
C          5.77200       -0.16110        1.11430
C          4.39590        0.06730        1.02130
H         -7.43450        2.66130       -0.51730
H         -7.25380        3.47470        1.08300
H         -5.87740        3.48070       -0.08370
H         -7.07410        1.00770        1.33100
H         -5.53100        1.82870        1.76700
H         -6.17750        0.50170       -0.94490
H         -4.62460        1.30010       -0.54260
H         -5.06500       -1.29620       -0.21970
H         -3.52810        0.54000        1.56960
H         -3.58640       -1.21250        1.87290
H         -2.69570        0.05370       -0.80490
H         -2.57840       -2.61960        0.21680
H         -1.11760        0.59150        1.02040
H         -1.00290       -1.12210        1.48990
H         -0.22590       -3.05090        0.77130
H          1.53850       -4.73500        0.63790
H          3.59570       -4.29620       -0.66270
H          3.90620       -2.14200       -1.80530
H          0.82970        1.48460       -1.25040
H          2.38050        2.12930       -1.82270
H          1.86200        0.73790        0.88180
H          2.19520        2.46450        0.60710
H          4.46860        2.99520       -0.72850
H          6.89640        2.58030       -0.55490
H          7.73740        0.56530        0.61870
H          6.14040       -1.04040        1.62670
H          3.71120       -0.64650        1.46270
