18

N          2.66980        1.00620       -0.14540
C          2.49000       -0.43060       -0.35150
C          1.05690       -0.89690       -0.19490
O          0.82630       -2.08770       -0.35010
C         -0.07550        0.05210        0.14720
C         -1.44020       -0.64720        0.23480
C         -2.52510        0.33440        0.55380
O         -2.52450        0.94180        1.65810
O         -3.54190        0.56810       -0.36670
H          2.09530        1.53330       -0.84190
H          2.35750        1.26270        0.81870
H          2.84260       -0.69260       -1.37220
H          3.12650       -0.97850        0.37610
H          0.14470        0.53200        1.12480
H         -0.13180        0.84110       -0.63330
H         -1.66790       -1.13750       -0.73690
H         -1.41810       -1.42770        1.02620
H         -4.28450        1.22670       -0.16430
