43

C          4.76510        1.25130       -1.06400
N          3.35910        0.88790       -0.82610
C          3.28890       -0.41620       -0.14960
C          1.84120       -0.90610       -0.06240
C          0.82270        0.18260        0.24710
C         -0.48610       -0.15160        0.42280
C         -1.55280        0.85920        0.52610
C         -1.67320        1.62850        1.69490
C         -2.67050        2.59930        1.79960
C         -3.55890        2.80360        0.74350
C         -3.46320        2.02560       -0.41300
C         -2.48080        1.02710       -0.52470
C         -2.42300        0.23720       -1.78050
C         -2.10400       -1.06440       -1.88090
C         -1.74740       -1.96470       -0.75540
C         -2.15570       -3.30750       -0.82430
C         -1.84160       -4.20040        0.20330
C         -1.10980       -3.76570        1.30860
C         -0.67530       -2.44140        1.38090
C         -0.96400       -1.54280        0.34090
C          1.21490        1.64950        0.13460
C          2.72170        1.89760        0.03260
H          5.33510        1.31630       -0.10980
H          5.24810        0.49890       -1.72410
H          4.82380        2.22920       -1.58860
H          3.87200       -1.17600       -0.71700
H          3.72750       -0.36100        0.87430
H          1.80970       -1.69160        0.72070
H          1.56530       -1.37600       -1.03190
H         -0.99000        1.47850        2.52210
H         -2.75260        3.19600        2.69890
H         -4.32720        3.56180        0.82300
H         -4.16830        2.19320       -1.21820
H         -2.76400        0.72820       -2.68470
H         -2.21280       -1.52060       -2.85810
H         -2.73290       -3.66210       -1.66980
H         -2.17170       -5.22950        0.14490
H         -0.87610       -4.45630        2.10850
H         -0.10870       -2.11540        2.24470
H          0.72270        2.07340       -0.76820
H          0.85070        2.21140        1.01920
H          3.17100        1.89780        1.05330
H          2.87120        2.91520       -0.39330
