58

C         -5.89140       -1.56950        3.47720
O         -6.45070       -0.89730        2.35340
C         -5.70580       -0.18700        1.39820
C         -4.30670       -0.07790        1.47480
C         -3.59640        0.63650        0.50720
N         -2.24600        0.72560        0.60440
C         -1.51130        1.40720       -0.31170
N         -0.07680        1.49010       -0.18580
C          0.66920        2.41250       -1.05700
C          2.13150        2.54260       -0.62080
N          2.71970        1.21040       -0.41730
C          4.05830        0.93070       -0.88870
O          4.80740        1.88600       -1.23470
C          4.60950       -0.47640       -0.90300
C          5.74250       -0.66730       -1.93350
O          6.32130       -1.96640       -1.78410
C          6.53120       -2.51830       -0.51580
C          7.33620       -3.64950       -0.35050
C          7.55730       -4.16400        0.93230
C          6.97220       -3.54950        2.04640
C          6.15460       -2.42580        1.88000
C          5.92190       -1.92040        0.59740
O          5.08270       -0.81880        0.40270
C          1.95530        0.18880        0.31940
C          0.63290        0.74250        0.86370
N         -2.14230        2.01740       -1.34930
C         -3.49160        1.97010       -1.50880
N         -4.05820        2.64840       -2.63770
C         -4.27390        1.26100       -0.56330
C         -5.67710        1.14810       -0.63590
C         -6.39260        0.42660        0.34120
O         -7.79050        0.29580        0.29730
C         -8.62700        0.85880       -0.70830
H         -5.36290       -0.84450        4.13170
H         -5.19020       -2.36130        3.13860
H         -6.70800       -2.04360        4.05920
H         -3.75990       -0.54530        2.28320
H          0.20080        3.42040       -1.02650
H          0.63150        2.03610       -2.10230
H          2.68290        3.11960       -1.39420
H          2.18210        3.11140        0.33290
H          3.80190       -1.18510       -1.18330
H          5.35020       -0.55480       -2.96650
H          6.53990        0.08960       -1.77000
H          7.79840       -4.11900       -1.20930
H          8.18570       -5.03530        1.06390
H          7.14820       -3.94740        3.03740
H          5.69360       -1.95900        2.74090
H          2.55850       -0.19250        1.17120
H          1.72190       -0.65690       -0.36210
H          0.83370        1.41970        1.72180
H          0.02670       -0.11190        1.23390
H         -5.07720        2.68030       -2.84690
H         -3.42670        3.15080       -3.30040
H         -6.22650        1.60910       -1.43740
H         -8.53030        1.96510       -0.71050
H         -9.68230        0.59580       -0.49030
H         -8.35740        0.44760       -1.70400
