53

C         -5.59420       -2.08960        2.70840
C         -4.16860       -1.69110        3.07420
O         -3.33980       -1.65320        1.91490
C         -3.41550       -0.64370        0.94810
N         -4.22640        0.43610        1.06530
C         -3.94520        1.14190       -0.04210
C         -4.45460        2.39310       -0.37330
C         -3.97440        3.01180       -1.53560
C         -3.01850        2.36610       -2.34420
C         -2.52780        1.08490       -2.00730
C         -1.63140        0.41010       -2.95440
O         -0.57880        0.98570       -3.34030
O         -1.99260       -0.81380       -3.50670
C         -3.00630        0.50050       -0.81260
N         -2.65170       -0.64150       -0.17540
C         -1.55770       -1.58270       -0.44940
C         -0.21340       -0.92980       -0.25030
C          0.08020       -0.26030        0.94910
C          1.32910        0.33740        1.13790
C          2.31190        0.25470        0.14000
C          3.62810        0.90440        0.33400
C          3.65720        2.29300        0.55220
C          4.87180        2.97010        0.66330
C          6.07270        2.27130        0.55810
C          6.06480        0.89040        0.35480
C          4.85120        0.18560        0.25110
C          4.89350       -1.29120        0.11590
N          3.96700       -2.13690        0.60730
N          4.40500       -3.34840        0.29520
N          5.55490       -3.25900       -0.35570
N          5.88150       -1.98520       -0.47490
C          2.02320       -0.42250       -1.05520
C          0.77480       -1.02100       -1.24320
H         -5.59080       -3.06870        2.18430
H         -6.20510       -2.17770        3.63130
H         -6.05560       -1.32560        2.04900
H         -4.16050       -0.70490        3.58720
H         -3.75840       -2.44790        3.77550
H         -5.18320        2.88500        0.25830
H         -4.34540        3.98890       -1.81660
H         -2.68480        2.85600       -3.25110
H         -1.39690       -1.27370       -4.18470
H         -1.66740       -2.01390       -1.46120
H         -1.62030       -2.44790        0.24460
H         -0.65870       -0.19670        1.73770
H          1.53440        0.85560        2.06660
H          2.73440        2.85740        0.61370
H          4.88150        4.04040        0.82390
H          7.01360        2.79940        0.64480
H          7.01290        0.36980        0.30930
H          6.73610       -1.62510       -0.95380
H          2.76600       -0.48730       -1.84090
H          0.57850       -1.54990       -2.16740
