94

C          6.13350        0.08230       -3.59400
C          5.84880       -1.23690       -2.93230
C          6.52360       -2.39450       -3.34980
C          6.25860       -3.62230       -2.74240
C          5.33030       -3.70590       -1.70410
C          4.65880       -2.55780       -1.25650
C          3.67030       -2.67910       -0.13000
C          4.89880       -1.32060       -1.89510
O          4.21540       -0.16860       -1.49540
C          2.88080        0.08960       -1.91600
C          2.37670        1.32860       -1.25080
O          1.95080        2.28470       -1.95350
N          2.35570        1.41260        0.18080
C          1.46950        2.33240        0.90240
C          2.12130        2.72960        2.24710
C          1.27560        3.69530        3.04020
C          1.07700        5.00830        2.57980
C          0.28410        5.89890        3.30990
C         -0.31280        5.48790        4.50460
C         -0.11560        4.18610        4.97290
C          0.67740        3.29230        4.24670
C          0.05160        1.70760        1.04990
O         -0.51680        1.55550       -0.22620
C          0.07510        0.33800        1.76820
C         -1.33720       -0.25070        1.98020
C         -1.33080       -1.43300        2.97330
C         -0.43760       -2.57420        2.54520
C          0.88640       -2.65160        3.01120
C          1.71280       -3.70710        2.61490
C          1.22500       -4.69390        1.75440
C         -0.09330       -4.63160        1.29560
C         -0.92510       -3.58100        1.69420
N         -1.90930       -0.67320        0.69760
C         -3.12410       -0.12860        0.16130
O         -3.83830        0.63940        0.86170
C         -3.56010       -0.51040       -1.23610
C         -4.43800       -1.81160       -1.31900
C         -3.65760       -2.96430       -1.97180
C         -5.00330       -2.29230        0.03260
N         -4.19360        0.63990       -1.92250
C         -3.46990        1.33600       -2.99680
C         -3.59340        2.84870       -2.82180
C         -5.06270        3.27880       -2.88930
N         -5.91450        2.43730       -2.04860
C         -5.48670        1.16420       -1.54830
O         -6.24680        0.52240       -0.77690
H          6.91330       -0.01310       -4.37930
H          5.20830        0.47180       -4.06770
H          6.48910        0.81150       -2.83590
H          7.25220       -2.34970       -4.14970
H          6.77760       -4.51210       -3.07500
H          5.14070       -4.66730       -1.24250
H          3.62400       -1.74260        0.46370
H          2.66370       -2.90570       -0.53880
H          3.96610       -3.49670        0.56090
H          2.21880       -0.75560       -1.63490
H          2.85390        0.20640       -3.02120
H          2.83640        0.65860        0.72240
H          1.36710        3.26830        0.30940
H          3.10290        3.21030        2.04290
H          2.34580        1.82190        2.84660
H          1.53650        5.34150        1.65760
H          0.13280        6.90820        2.94950
H         -0.92700        6.17830        5.06810
H         -0.57810        3.86910        5.89860
H          0.81630        2.28580        4.62110
H         -0.58860        2.39610        1.64910
H         -0.82900        2.45290       -0.51460
H          0.54660        0.46080        2.76460
H          0.68910       -0.38160        1.18460
H         -1.96800        0.54140        2.44060
H         -2.37110       -1.80530        3.10090
H         -1.01270       -1.06410        3.97340
H          1.28040       -1.89150        3.67420
H          2.73330       -3.75740        2.97170
H          1.86840       -5.50700        1.44400
H         -0.47170       -5.39860        0.63240
H         -1.94570       -3.54910        1.33520
H         -1.37190       -1.35440        0.11530
H         -2.60930       -0.72900       -1.77040
H         -5.30670       -1.61500       -1.98530
H         -4.30220       -3.86420       -2.06910
H         -2.76600       -3.22560       -1.36170
H         -3.32430       -2.67230       -2.99080
H         -5.57960       -1.49140        0.53630
H         -4.18520       -2.61950        0.70860
H         -5.68970       -3.15150       -0.12580
H         -2.39020        1.07260       -2.99840
H         -3.89670        1.03670       -3.97870
H         -3.01880        3.36650       -3.61970
H         -3.16440        3.14050       -1.83790
H         -5.42430        3.22470       -3.93860
H         -5.14220        4.33360       -2.54970
H         -6.89050        2.75560       -1.85430
