24

O         -0.20480       -2.45230       -0.53940
C         -0.10400       -1.24530       -0.18650
C         -1.32830       -0.40920       -0.14170
C         -1.28080        0.96330       -0.45120
C         -2.44620        1.73540       -0.42250
C         -3.66970        1.14590       -0.09610
C         -3.73120       -0.21850        0.19670
C         -2.56860       -0.99510        0.16900
C          1.23450       -0.71390        0.16850
C          2.38330       -1.22390       -0.46270
C          3.65100       -0.74170       -0.12220
C          3.78580        0.24450        0.85770
C          2.65340        0.74650        1.50330
C          1.38360        0.26780        1.16640
H         -0.34730        1.43550       -0.73000
H         -2.40130        2.79050       -0.65960
H         -4.57080        1.74510       -0.07540
H         -4.68060       -0.67530        0.44450
H         -2.63610       -2.05090        0.40130
H          2.29900       -1.98700       -1.22670
H          4.52960       -1.13370       -0.61830
H          4.76790        0.61560        1.12080
H          2.75980        1.50300        2.27010
H          0.52180        0.65370        1.69600
