92

C          6.28450        3.35100       -5.94290
O          6.09900        2.36680       -4.95170
C          7.34970        1.81490       -4.59620
C          7.14750        0.68980       -3.57680
C          6.49140       -0.55350       -4.19640
O          5.19890       -0.25850       -4.72890
C          4.05360        0.05610       -3.97770
C          3.99020       -0.13820       -2.58450
C          2.82390        0.17240       -1.86640
C          2.76170       -0.05050       -0.36770
C          2.22400       -1.45350        0.05860
C          0.72640       -1.64310       -0.33960
C         -0.27340       -0.63730        0.30410
N         -0.21730       -0.68860        1.76910
C         -1.72390       -0.92760       -0.17530
O         -1.79350       -0.87730       -1.57990
C         -2.76480        0.05500        0.43490
C         -3.48560       -0.50230        1.69220
C         -4.01870        0.63250        2.54070
O         -4.71710        1.53880        2.00840
N         -3.70870        0.69230        3.94170
C         -4.14430        1.78930        4.80960
C         -5.44940        1.45050        5.58190
C         -5.25300        0.15010        6.39850
C         -6.62870        1.24630        4.60860
C         -5.77760        2.61410        6.51240
N         -6.04300        3.91910        5.98960
O         -5.81690        2.44490        7.76220
C         -4.58720       -1.55790        1.35110
C         -5.87590       -0.96060        0.75630
C         -4.93090       -2.40760        2.58420
C          3.14420       -2.62370       -0.45120
C          4.53940       -2.57190        0.20500
C          2.54980       -4.02170       -0.18910
C          1.72770        0.71280       -2.55450
C          1.78080        0.90600       -3.93520
C          2.94160        0.57480       -4.65660
O          3.03390        0.75690       -6.04560
C          1.99720        1.29610       -6.85890
H          5.29680        3.79010       -6.19280
H          6.93730        4.17490       -5.57770
H          6.70030        2.90820       -6.87510
H          7.88190        1.40550       -5.48620
H          7.98920        2.59430       -4.12280
H          8.14010        0.39450       -3.17310
H          6.54200        1.06610       -2.72550
H          7.13380       -0.92260       -5.02390
H          6.42600       -1.37400       -3.45100
H          4.84060       -0.53560       -2.05450
H          3.76610        0.11900        0.07020
H          2.15020        0.74890        0.09690
H          2.27030       -1.49130        1.16800
H          0.38040       -2.64830       -0.02740
H          0.64440       -1.60840       -1.44630
H         -0.02790        0.39420       -0.01690
H          0.63990       -0.19210        2.10250
H         -0.17060       -1.68250        2.09260
H         -1.97580       -1.96760        0.12220
H         -1.56300        0.04810       -1.85770
H         -2.25230        1.01020        0.68840
H         -3.51990        0.32350       -0.33250
H         -2.71370       -1.02330        2.29690
H         -3.13620       -0.07120        4.36750
H         -4.26710        2.71730        4.21070
H         -3.33230        1.99830        5.54090
H         -4.38490        0.24610        7.08600
H         -5.07390       -0.72040        5.73250
H         -6.15900       -0.07330        7.00270
H         -6.74290        2.11430        3.92600
H         -6.47860        0.33990        3.98660
H         -7.57840        1.11710        5.17170
H         -6.26400        4.70680        6.63830
H         -6.02340        4.11200        4.96450
H         -4.18030       -2.25940        0.59200
H         -5.65830       -0.32760       -0.12670
H         -6.42420       -0.35740        1.50960
H         -6.54820       -1.77920        0.42130
H         -4.01990       -2.91160        2.97160
H         -5.36130       -1.77820        3.39030
H         -5.66780       -3.19460        2.31600
H          3.27460       -2.53770       -1.55040
H          5.08640       -1.64600       -0.05140
H          5.16790       -3.41530       -0.15300
H          4.45260       -2.64050        1.31060
H          3.29960       -4.81620       -0.39250
H          1.69930       -4.22120       -0.87390
H          2.21500       -4.11450        0.86640
H          0.82880        0.99350       -2.02680
H          0.91340        1.31850       -4.43200
H          1.75410        2.32920       -6.53190
H          2.34360        1.32950       -7.91210
H          1.09350        0.65330       -6.80190
