21

C          3.60250        1.41380       -0.38870
O          2.57320        0.43270       -0.35700
C          1.85220        0.13600        0.80320
O          2.08260        0.75170        1.87980
C          0.76380       -0.88900        0.75130
C         -0.56130       -0.24300        0.32450
C         -1.70680       -1.23370        0.24640
O         -1.51170       -2.41110        0.51270
C         -3.10980       -0.82520       -0.15400
N         -3.24730        0.59970       -0.45410
H          4.41210        1.13860        0.32000
H          4.02410        1.46700       -1.41340
H          3.18840        2.40810       -0.11770
H          0.65110       -1.35830        1.75340
H          1.04920       -1.68010        0.02420
H         -0.42310        0.22480       -0.67400
H         -0.82220        0.55010        1.05780
H         -3.41160       -1.41010       -1.04920
H         -3.80800       -1.08620        0.67010
H         -2.61050        0.85330       -1.24350
H         -2.98660        1.16080        0.38850
