42

C         -1.27590        1.22670       -1.29510
C         -1.06430        0.56280        0.08160
N          0.18800        1.02140        0.71600
C          1.37100        0.32330        0.19440
C          2.60220        0.69690        1.02550
C          3.83670        0.00170        0.51080
C          4.84360        0.72930       -0.14580
C          5.98860        0.08040       -0.61850
C          6.14100       -1.30070       -0.43700
O          7.27720       -1.95760       -0.90400
C          5.14370       -2.02820        0.22010
C          3.99780       -1.38210        0.69360
C         -2.24690        0.84280        1.04280
O         -2.43470        2.22800        1.20740
C         -3.52490        0.18050        0.56020
C         -3.67510       -1.21140        0.69510
C         -4.83890       -1.84680        0.25260
C         -5.86800       -1.10320       -0.33140
O         -7.02180       -1.74990       -0.76830
C         -5.72910        0.28330       -0.47240
C         -4.56690        0.92270       -0.03060
H         -2.21050        0.85650       -1.76570
H         -1.33750        2.33140       -1.19820
H         -0.44110        0.97640       -1.98060
H         -1.02150       -0.53920       -0.07620
H          0.30680        2.05100        0.56150
H          1.55070        0.60520       -0.86630
H          1.22050       -0.77730        0.25440
H          2.73850        1.80030        0.99170
H          2.43830        0.41540        2.08850
H          4.74170        1.79670       -0.29680
H          6.75590        0.65150       -1.12540
H          8.01740       -1.45880       -1.38370
H          5.25750       -3.09500        0.36520
H          3.23760       -1.95910        1.20560
H         -2.00470        0.39280        2.03580
H         -1.77670        2.53570        1.88420
H         -2.88910       -1.80510        1.14540
H         -4.94070       -2.91890        0.36360
H         -7.78540       -1.23900       -1.19590
H         -6.51990        0.86630       -0.92700
H         -4.48130        1.99320       -0.16410
