25

C          3.81850       -0.00480       -0.37860
C          2.32900       -0.02940       -0.19960
C          1.51710        0.74490       -1.03590
C          0.12960        0.73250       -0.88150
C         -0.47740       -0.05670        0.11520
C         -1.99120       -0.06010        0.27170
C         -2.51250        1.33600        0.63400
C         -2.67620       -0.59300       -0.99280
C          0.34380       -0.83770        0.95870
O         -0.22020       -1.63210        1.95740
C          1.73720       -0.81890        0.79620
H          4.32890       -0.66590        0.35380
H          4.07680       -0.34900       -1.40220
H          4.19390        1.03070       -0.23850
H          1.96000        1.36000       -1.80980
H         -0.47080        1.34220       -1.54400
H         -2.28930       -0.73530        1.10220
H         -3.60360        1.29290        0.83870
H         -2.33820        2.05770       -0.19180
H         -2.00260        1.70640        1.54900
H         -2.28340       -1.60210       -1.24140
H         -3.77100       -0.67900       -0.82440
H         -2.50590        0.08220       -1.85790
H          0.35080       -2.19970        2.57280
H          2.35690       -1.42180        1.44860
