81

C         -8.66570        1.77470        2.31140
C         -7.78310        1.27250        1.18710
C         -6.40970        0.97840        1.39290
C         -5.77910        1.12430        2.76090
C         -5.61600        0.55740        0.30660
C         -6.17350        0.41750       -0.97680
C         -7.55840        0.62720       -1.16820
C         -8.19040        0.40710       -2.52520
C         -8.34940        1.08940       -0.09740
O         -9.70280        1.36140       -0.33590
C         -5.28440       -0.04550       -2.10840
C         -3.82730        0.36150       -1.88700
C         -3.30650       -0.07270       -0.49320
C         -3.09150       -1.59810       -0.43570
C         -1.99280        0.67700       -0.14230
C         -0.79990        0.37640       -1.07410
C          0.41960        1.27580       -0.79060
C          1.09560        1.04030        0.58300
C          2.18560        2.09480        0.83540
C          1.60530       -0.41010        0.81770
C          2.39990       -1.08170       -0.32380
C          3.76530       -0.42980       -0.60500
C          4.76060       -1.38630       -1.30880
C          4.19870       -1.88340       -2.65260
C          6.13330       -0.70850       -1.55830
C          6.86510       -0.18370       -0.30690
C          7.14270       -1.27990        0.73730
C          7.96530       -0.76360        1.94070
C          9.43320       -0.50530        1.56540
C          7.89780       -1.77160        3.09600
O         -4.25800        0.27090        0.52080
H         -8.14220        1.90760        3.27620
H         -9.08800        2.76460        2.03820
H         -9.49320        1.05490        2.48480
H         -4.71540        0.81280        2.78770
H         -5.82020        2.18660        3.08100
H         -6.31880        0.48840        3.49380
H         -7.95000        1.26280       -3.19020
H         -9.29340        0.30450       -2.46620
H         -7.81560       -0.53300       -2.98130
H        -10.34850        1.69030        0.36940
H         -5.60540        0.40740       -3.07040
H         -5.36360       -1.14880       -2.20790
H         -3.21150       -0.08480       -2.69710
H         -3.75900        1.46820       -1.98290
H         -4.06620       -2.12850       -0.46960
H         -2.47570       -1.95220       -1.28910
H         -2.58780       -1.88350        0.51270
H         -1.71410        0.40640        0.89840
H         -2.19320        1.77130       -0.14830
H         -1.09720        0.56000       -2.12670
H         -0.51260       -0.69060       -0.99440
H          1.16580        1.13090       -1.60080
H          0.09300        2.33720       -0.85750
H          0.33540        1.23070        1.37050
H          2.90320        2.15920       -0.00420
H          2.73930        1.87420        1.77260
H          1.71670        3.09590        0.94800
H          0.71900       -1.05020        1.02050
H          2.20920       -0.44730        1.75060
H          2.56530       -2.13860       -0.01970
H          1.79670       -1.10910       -1.25380
H          4.19660       -0.10820        0.36500
H          3.62060        0.46360       -1.24700
H          4.91540       -2.28220       -0.67010
H          4.94790       -2.51580       -3.17530
H          3.93540       -1.02620       -3.30880
H          3.29620       -2.50970       -2.49530
H          6.80650       -1.43400       -2.06670
H          5.99310        0.14620       -2.25660
H          7.82700        0.24480       -0.65590
H          6.29640        0.65050        0.15450
H          6.16740       -1.65010        1.11860
H          7.66780       -2.13520        0.25760
H          7.52090        0.19060        2.30180
H          9.89330       -1.41690        1.12730
H          9.51610        0.32810        0.83890
H         10.01390       -0.21270        2.46620
H          8.32250       -2.75090        2.78620
H          6.84430       -1.92190        3.41530
H          8.46740       -1.39370        3.97190
