39

C          3.21440       -0.28390       -1.59330
N          3.28940       -0.26450       -0.12170
C          3.02050       -1.58010        0.47650
C          1.56540       -2.03080        0.28130
C          0.54270       -0.90880        0.34900
C          0.93570        0.39520        0.37110
C          2.40660        0.75400        0.46910
C         -0.03250        1.53150        0.34750
C          0.13660        2.60560        1.24150
C         -0.72350        3.70490        1.20460
C         -1.76100        3.75100        0.27420
C         -1.94350        2.69710       -0.62230
C         -1.07950        1.58870       -0.60270
C         -1.32940        0.43070       -1.52680
C         -1.77310       -0.73510       -0.69070
C         -3.09530       -1.20040       -0.79510
C         -3.55150       -2.22480        0.03440
C         -2.69910       -2.78590        0.98360
C         -1.38230       -2.33570        1.09750
C         -0.89530       -1.31380        0.25940
H          3.55090        0.69350       -1.99970
H          2.18200       -0.48090       -1.95330
H          3.89330       -1.06310       -2.00100
H          3.24180       -1.53300        1.56610
H          3.70920       -2.34290        0.05120
H          1.47040       -2.52550       -0.70940
H          1.35100       -2.79870        1.05200
H          2.66940        0.88170        1.54170
H          2.59410        1.73570       -0.02070
H          0.93110        2.59110        1.97670
H         -0.58570        4.52250        1.90030
H         -2.42910        4.60220        0.25140
H         -2.76380        2.74380       -1.32790
H         -0.40210        0.17180       -2.08190
H         -2.09400        0.69170       -2.29130
H         -3.78000       -0.75950       -1.50900
H         -4.57230       -2.57490       -0.04960
H         -3.05980       -3.57130        1.63520
H         -0.75180       -2.77940        1.85600
