77

C         -5.24590       -3.17190       -0.71350
C         -3.99150       -2.40990       -0.36880
C         -3.95450       -1.46550        0.60150
C         -5.15440       -1.07510        1.39340
O         -5.00270       -0.60360        2.55410
O         -6.43870       -1.17080        0.84510
C         -7.63360       -0.87140        1.56590
C         -7.95090       -1.99930        2.55170
C         -8.77760       -0.69460        0.57010
C         -2.65920       -0.72130        0.90110
C         -2.80680        0.73350        0.49720
C         -3.01920        1.08220       -0.84780
C         -3.14930        2.42140       -1.21690
C         -3.06840        3.42730       -0.25210
C         -2.85530        3.10300        1.09990
N         -2.77000        4.13720        2.09760
O         -2.88400        5.33940        1.78010
O         -2.56060        3.81850        3.41990
C         -2.72560        1.75070        1.46450
C         -1.40810       -1.30240        0.26140
C         -0.10890       -0.69790        0.63980
O          0.08670       -0.33660        1.83260
O          0.86510       -0.45890       -0.33480
C          2.12210        0.14120       -0.03440
C          3.10650       -0.83580        0.58510
N          4.00560       -0.78380       -0.57760
C          5.36230       -0.24670       -0.25520
C          6.34890       -0.48370       -1.39150
C          7.72510       -0.31930       -1.14030
C          8.66410       -0.51840       -2.15600
C          8.24400       -0.88670       -3.43500
C          6.88410       -1.05750       -3.70010
C          5.93940       -0.85950       -2.68830
C          5.40690        1.20960        0.22910
C          5.54520        2.28500       -0.67540
C          5.62260        3.60100       -0.21140
C          5.58890        3.86350        1.15880
C          5.49080        2.80930        2.06820
C          5.41300        1.49110        1.60950
C          3.05480        0.13310       -1.23000
C         -1.50050       -2.27160       -0.67220
N         -0.33790       -2.88360       -1.24900
N         -2.78810       -2.75450       -1.06960
H         -5.02790       -3.99540       -1.42480
H         -5.98060       -2.49820       -1.20120
H         -5.68500       -3.62630        0.20000
H         -7.50880        0.08340        2.12370
H         -7.13550       -2.09630        3.29840
H         -8.05550       -2.96530        2.01270
H         -8.89490       -1.78140        3.09520
H         -9.71810       -0.43870        1.10330
H         -8.93130       -1.62720       -0.01440
H         -8.53680        0.13020       -0.13370
H         -2.50290       -0.79440        2.00020
H         -3.08280        0.31510       -1.60950
H         -3.31270        2.68100       -2.25490
H         -3.17210        4.45880       -0.56340
H         -2.56000        1.48650        2.50120
H          2.05340        1.12600        0.47840
H          3.53900       -0.45700        1.53300
H          2.68310       -1.85750        0.70220
H          5.75210       -0.88000        0.57490
H          8.06950       -0.03230       -0.15420
H          9.71860       -0.38660       -1.95070
H          8.97230       -1.04050       -4.22070
H          6.56030       -1.34390       -4.69250
H          4.89670       -1.00070       -2.93170
H          5.58940        2.10680       -1.74240
H          5.71510        4.41770       -0.91560
H          5.65150        4.88310        1.51650
H          5.48460        3.01250        3.13130
H          5.37020        0.69070        2.33670
H          3.44140        1.13540       -1.48170
H          2.59640       -0.35510       -2.11830
H         -0.44250       -3.53700       -2.05640
H          0.60320       -2.82840       -0.80270
H         -2.83390       -3.45230       -1.84580
