21

C          3.54570        0.15790        0.58700
C          2.25940       -0.38240        0.06090
O          2.26720       -1.39080       -0.69640
O          1.06500        0.27880        0.37390
C         -0.22590       -0.23650        0.17420
C         -0.47830       -1.61670        0.30170
C         -1.76470       -2.12390        0.11810
C         -2.81760       -1.26360       -0.18350
C         -2.59050        0.10890       -0.29440
C         -1.29900        0.64330       -0.11290
C         -1.09500        2.11100       -0.23870
O         -2.07590        2.86970       -0.46850
O          0.17220        2.67290       -0.10870
H          3.52300        0.14990        1.69650
H          4.40230       -0.45740        0.23830
H          3.68120        1.20080        0.23230
H          0.31300       -2.30180        0.57390
H         -1.94700       -3.18610        0.21940
H         -3.81510       -1.65970       -0.32400
H         -3.43040        0.75300       -0.52310
H          0.31050        3.67270       -0.19540
