19

C          2.85320       -0.07400        0.05400
N          1.42470        0.17130        0.20380
C          0.77570        1.14320        1.00230
O          1.38160        1.97210        1.73080
O         -0.60790        1.08320        0.89470
C         -0.98030        0.03710       -0.00860
C         -1.81400       -1.01750        0.72500
C         -1.73490        0.62200       -1.20620
C          0.35650       -0.51830       -0.42540
O          0.52460       -1.47390       -1.22980
H          3.14360        0.05940       -1.00890
H          3.08720       -1.11180        0.37060
H          3.43680        0.63400        0.67900
H         -2.75810       -0.56620        1.09780
H         -2.06370       -1.85930        0.04390
H         -1.25010       -1.41740        1.59530
H         -2.67770        1.10110       -0.86620
H         -1.11470        1.39180       -1.71380
H         -1.98260       -0.17670       -1.93810
