60

N         -2.60200        4.68740        1.13960
C         -1.85140        4.13470        0.01660
C         -2.06350        2.62090       -0.06520
C         -1.25670        2.01430       -1.22350
C         -1.52070        0.50960       -1.40560
C         -0.92180       -0.38180       -0.28680
N          0.56120       -0.35160       -0.27990
C          1.12410        0.38020        0.87510
C          2.60790        0.73640        0.63330
C          3.49940       -0.49740        0.40590
C          4.92130       -0.08720        0.12210
C          5.46650       -0.24350       -1.16400
C          6.78780        0.13650       -1.42020
C          7.57440        0.67130       -0.39640
C          7.04170        0.82600        0.88610
C          5.72110        0.44770        1.14690
C          0.97590       -0.41530        2.15250
O          0.66510       -1.63590        2.11630
O          1.18800        0.19290        3.38640
C         -1.38700       -1.80430       -0.49660
O         -0.59310       -2.64980       -0.99420
N         -2.73450       -2.20370       -0.17670
C         -3.58010       -1.50800        0.78070
C         -4.75450       -2.43890        1.05140
C         -4.75270       -3.46300       -0.08010
C         -3.33870       -3.43480       -0.66700
C         -3.36550       -3.45680       -2.17330
O         -2.89470       -4.44650       -2.79280
O         -3.90030       -2.39190       -2.89460
H         -2.36930        5.70460        1.20770
H         -3.62140        4.63130        0.91090
H         -2.18110        4.61810       -0.93060
H         -0.76930        4.34670        0.16380
H         -1.75050        2.16940        0.89910
H         -3.14510        2.41120       -0.21710
H         -0.17250        2.20470       -1.07940
H         -1.55400        2.52540       -2.16550
H         -2.61870        0.34980       -1.47320
H         -1.09790        0.19380       -2.38490
H         -1.32430       -0.05060        0.69270
H          0.92530        0.05170       -1.17520
H          0.57930        1.34000        1.00950
H          2.98920        1.31700        1.50160
H          2.67530        1.40240       -0.25540
H          3.48760       -1.15260        1.30330
H          3.09810       -1.09210       -0.44310
H          4.86960       -0.65390       -1.96900
H          7.20190        0.01660       -2.41300
H          8.59680        0.96460       -0.59670
H          7.65260        1.23800        1.67890
H          5.32250        0.56790        2.14670
H          1.42590        1.17520        3.45350
H         -3.02490       -1.31460        1.72410
H         -3.93520       -0.55000        0.34470
H         -4.60110       -2.96030        2.02200
H         -5.71370       -1.87800        1.08850
H         -5.00700       -4.47640        0.30020
H         -5.51700       -3.16720       -0.83330
H         -2.76030       -4.30380       -0.28000
H         -4.27810       -1.57660       -2.42680
