39

C          4.66390       -0.34780       -1.40230
C          3.68810       -0.61610       -2.36630
C          2.40300       -1.00300       -1.97390
C          2.08940       -1.13370       -0.61130
C          0.69230       -1.50060       -0.19160
N         -0.18160       -0.32210       -0.26280
C         -1.34650       -0.33330       -1.15520
C         -2.43450       -1.24360       -0.58900
N         -3.55260       -1.33300       -1.52510
C         -4.74830       -1.17530       -0.72300
C         -4.31980       -0.46110        0.53310
N         -2.90280       -0.73910        0.70160
C          0.06230        0.81410        0.58780
C          0.16900        0.65490        1.97980
C          0.42250        1.76000        2.79780
C          0.57290        3.02960        2.23350
C          0.46930        3.19610        0.84990
C          0.21510        2.09350        0.02880
C          3.07150       -0.85000        0.35260
C          4.35510       -0.46270       -0.04400
H          5.65760       -0.04630       -1.70760
H          3.92620       -0.51970       -3.41770
H          1.65170       -1.19670       -2.72950
H          0.68550       -1.91900        0.83720
H          0.31490       -2.30800       -0.85740
H         -1.75830        0.69140       -1.28710
H         -1.03860       -0.70090       -2.15800
H         -5.15770       -2.17860       -0.47500
H         -5.50930       -0.58880       -1.28010
H         -4.90970       -0.80340        1.41290
H         -4.45780        0.63500        0.41040
H         -2.80040       -1.52890        1.38030
H          0.04260       -0.31930        2.43310
H          0.50050        1.63250        3.86970
H          0.76990        3.88390        2.86810
H          0.58980        4.17900        0.41320
H          0.15320        2.23190       -1.04310
H          2.84230       -0.92340        1.40850
H          5.10930       -0.24740        0.70180
