69

C          5.32090       -0.74080        1.03240
C          4.08950       -0.55900        0.11920
C          4.26420        0.68910       -0.79750
C          5.03160        0.40420       -2.10200
C          6.50830        0.25010       -1.88990
O          7.06940       -0.84430       -2.15990
O          7.27480        1.31200       -1.41780
C          2.77050       -0.53580        0.98280
C          2.61010        0.76980        1.76990
C          1.55540        1.59870        1.05570
C          0.75070        0.66430        0.12520
C         -0.79290        0.74780        0.41990
C         -1.39530        2.00730       -0.26810
O         -0.78830        3.16920        0.23600
C         -2.91190        2.11070       -0.05740
C         -3.62760        0.84080       -0.54680
C         -5.16530        1.01400       -0.47210
C         -5.94080       -0.31770       -0.63120
O         -7.12680       -0.11940       -1.35960
C         -5.08450       -1.41590       -1.27880
C         -3.80830       -1.70970       -0.46410
C         -3.11570       -0.44820        0.17830
C         -3.47530       -0.39350        1.70030
C         -1.55160       -0.53730       -0.04010
C         -0.92920       -1.84990        0.53050
C          0.48270       -1.68160        1.12340
O          0.37690       -1.17960        2.43410
C          1.39170       -0.75450        0.25060
C          1.56200       -1.41480       -1.15050
H          5.51290        0.16470        1.64410
H          6.22770       -0.95750        0.43560
H          5.17760       -1.60490        1.71530
H          4.06830       -1.47340       -0.50900
H          3.27250        1.06830       -1.10560
H          4.74450        1.52370       -0.24270
H          4.61750       -0.50220       -2.59520
H          4.87650        1.25390       -2.80110
H          6.85940        2.21490       -1.22280
H          2.89510       -1.35670        1.72550
H          2.25780        0.54070        2.79970
H          3.55230        1.34640        1.87390
H          2.04890        2.39470        0.45580
H          0.92590        2.10960        1.81600
H          0.91400        1.02280       -0.91660
H         -0.93140        0.84960        1.51590
H         -1.20240        1.93440       -1.36560
H         -0.93690        3.88790       -0.43290
H         -3.28830        2.98200       -0.63790
H         -3.13760        2.31270        1.01080
H         -3.37850        0.73860       -1.62900
H         -5.45530        1.48270        0.49390
H         -5.46880        1.72860       -1.26900
H         -6.23800       -0.67940        0.37620
H         -6.87310        0.13960       -2.28430
H         -5.68310       -2.34860       -1.36920
H         -4.80010       -1.10500       -2.30850
H         -3.11430       -2.23170       -1.15780
H         -4.05720       -2.45860        0.31970
H         -4.56010       -0.24670        1.85830
H         -3.22410       -1.33290        2.22830
H         -2.96210        0.42680        2.23420
H         -1.39990       -0.58190       -1.14240
H         -1.56730       -2.32260        1.29930
H         -0.88430       -2.60710       -0.28230
H          0.95660       -2.69210        1.16490
H          0.10930       -1.93740        3.01730
H          0.59750       -1.52220       -1.68070
H          2.00730       -2.42790       -1.05280
H          2.19630       -0.80970       -1.82490
