12

C         -1.72400       -0.16080        0.03540
C         -0.24840        0.06150        0.00390
C          0.41000        1.27380       -0.02520
N          1.73880        1.05050       -0.04770
N          1.93030       -0.25980       -0.03360
C          0.74460       -0.89310       -0.00220
H         -2.15230        0.31430        0.94240
H         -1.95200       -1.24740        0.05450
H         -2.18720        0.28970       -0.86710
H         -0.04600        2.25490       -0.02980
H          2.86910       -0.71600       -0.04550
H          0.61700       -1.96770        0.01490
