44

C         -2.48700       -1.57100       -1.59880
C         -2.33040       -0.27250       -0.77470
C         -1.53080        0.79240       -1.59070
C         -0.02020        0.51840       -1.64970
C          0.56830        0.45050       -0.22480
C          2.09110        0.30120       -0.19810
C          2.89960        1.13300       -1.00080
C          4.29130        1.03360       -0.96250
C          4.90890        0.12860       -0.09650
O          6.29680        0.01410       -0.06010
C          4.12980       -0.65990        0.75050
C          2.72910       -0.56030        0.73740
C          1.94780       -1.40670        1.71690
C          0.50920       -0.91920        1.89850
C         -0.13060       -0.70960        0.52260
C         -1.67110       -0.54260        0.59710
C         -2.17770        0.57160        1.52890
C         -3.49150        1.07820        0.92660
C         -3.71840        0.26270       -0.35520
O         -4.37930        0.97900       -1.37340
H         -1.50020       -2.00460       -1.85910
H         -3.05440       -2.33890       -1.03040
H         -3.03730       -1.36370       -2.54130
H         -1.92540        0.85070       -2.62880
H         -1.66510        1.79990       -1.13880
H          0.43220        1.34810       -2.22800
H          0.18740       -0.42230       -2.20310
H          0.34890        1.41350        0.28330
H          2.46630        1.87630       -1.65330
H          4.89020        1.66970       -1.60190
H          6.89060        0.57530       -0.65950
H          4.61980       -1.34240        1.43490
H          1.93840       -2.45610        1.35000
H          2.44980       -1.39780        2.70910
H          0.50450        0.03010        2.47810
H         -0.05820       -1.68230        2.47480
H          0.04850       -1.64420       -0.05860
H         -2.08360       -1.49830        0.99870
H         -2.34360        0.17330        2.55390
H         -1.45820        1.41290        1.59930
H         -4.33480        0.92980        1.63610
H         -3.40460        2.16530        0.70970
H         -4.37010       -0.59730       -0.07850
H         -3.97610        1.88170       -1.44540
