27

N         -3.16950        1.95000        2.20240
C         -2.88520        1.09830        1.09280
N         -1.63480        0.55730        0.96020
C         -1.39820       -0.24920       -0.10180
C         -2.33870       -0.52730       -1.03080
N         -1.83300       -1.32030       -1.99500
C         -0.54500       -1.50010       -1.58890
N         -0.25570       -0.86520       -0.42430
C          1.04050       -0.76420        0.23580
O          1.70620        0.39010       -0.23180
C          3.02550        0.44430        0.27760
C          4.01090       -0.11770       -0.74830
O          5.32790        0.04300       -0.29660
C         -3.60920        0.01590       -0.91180
O         -4.50380       -0.22400       -1.76590
N         -3.86230        0.82540        0.16220
H         -4.11660        2.37310        2.32120
H         -2.42990        2.15910        2.90900
H          0.17650       -2.08050       -2.14940
H          1.62750       -1.68530        0.01720
H          0.88120       -0.69810        1.33590
H          3.14940       -0.07620        1.25750
H          3.27780        1.51130        0.45520
H          3.89510        0.43340       -1.70580
H          3.79830       -1.19270       -0.94420
H          5.47790       -0.65420        0.39430
H         -4.81290        1.24560        0.27330
