14

O         -0.81730        2.71350       -0.50970
C         -0.82150        1.47970       -0.25940
N         -1.99660        0.81090       -0.06590
C         -2.01430       -0.53440        0.20770
N         -0.84470       -1.24050        0.29310
C          0.31880       -0.57220        0.10020
N          1.56210       -1.07090        0.14000
N          2.40940       -0.07510       -0.10360
C          1.69480        1.06310       -0.29910
C          0.35760        0.75450       -0.17060
H         -2.96070       -1.03720        0.35630
H         -0.85060       -2.26400        0.50090
H          1.84000       -2.05970        0.32680
H          2.12290        2.03240       -0.51670
