53

C          4.04830        0.55290       -1.89430
C          4.16140       -0.77400       -1.18880
O          4.86640       -1.63640       -1.69220
C          3.44960       -1.09100        0.12520
C          3.82150       -0.07900        1.24410
C          2.54870        0.71360        1.59250
C          1.57280        0.35630        0.48080
C          0.06610        0.73450        0.58870
C         -0.54850        0.76630        1.99300
C         -1.94690        1.40120        1.92050
C         -2.83100        0.76050        0.85980
C         -4.13300        0.57780        1.14580
C         -5.08230        0.03330        0.16710
O         -6.28720       -0.13120        0.49510
C         -4.64880       -0.26870       -1.22990
C         -3.15410       -0.60000       -1.27370
C         -2.25740        0.45320       -0.53980
C         -2.22550        1.75720       -1.37570
C         -0.82060       -0.15290       -0.33860
C         -0.03570       -0.55140       -1.61610
C          1.19560       -1.44560       -1.27830
C          1.88620       -1.09600        0.09210
C          1.42580       -2.11680        1.18430
H          4.27590        1.38940       -1.20370
H          4.76850        0.60140       -2.73890
H          3.03250        0.68570       -2.31620
H          3.82080       -2.09450        0.43990
H          4.63970        0.60890        0.94100
H          4.17290       -0.62530        2.14720
H          2.16480        0.38990        2.58290
H          2.74690        1.80750        1.61730
H          1.91930        0.97840       -0.37350
H          0.02760        1.78340        0.22650
H          0.07290        1.38870        2.67070
H         -0.61640       -0.25580        2.42190
H         -2.41050        1.33700        2.92950
H         -1.84160        2.48120        1.67930
H         -4.51570        0.83670        2.12630
H         -5.22280       -1.13850       -1.61720
H         -4.87670        0.60030       -1.88140
H         -3.01850       -1.60290       -0.81070
H         -2.86310       -0.68820       -2.34180
H         -1.79610        1.57120       -2.38240
H         -3.24830        2.16470       -1.50930
H         -1.64270        2.56060       -0.88650
H         -1.01740       -1.10650        0.18360
H         -0.67640       -1.11270       -2.32450
H          0.30900        0.36700       -2.13890
H          0.86150       -2.50650       -1.27060
H          1.89730       -1.38190       -2.13120
H          1.72930       -3.14420        0.88890
H          0.34000       -2.14790        1.35360
H          1.89580       -1.91090        2.16830
