42

C         -5.63430       -2.35960        1.54750
C         -4.42670       -2.56660        0.69760
O         -4.30320       -3.62740        0.02640
O         -3.44240       -1.57590        0.65550
C         -2.26260       -1.69680       -0.13500
C         -1.38880       -0.43890        0.02010
C         -0.02180       -0.67400       -0.66850
C          0.99590        0.44450       -0.40460
N          2.32710        0.03270       -0.84670
C          2.74440       -0.20150       -2.11820
N          4.05700       -0.55780       -2.19880
C          4.44810       -0.53400       -0.91110
C          5.69270       -0.81050       -0.36750
N          5.82670       -0.71150        0.98860
C          4.77050       -0.35160        1.78980
N          4.94920       -0.25950        3.20100
N          3.54720       -0.08150        1.23900
C          3.42120       -0.18070       -0.10650
C         -2.12180        0.79530       -0.54810
O         -1.53830        1.99110       -0.03950
C         -1.98670        3.26400       -0.40100
C         -1.32290        4.46680        0.17730
O         -2.96960        3.40490       -1.17840
H         -6.17070       -1.44800        1.21150
H         -6.31980       -3.23060        1.47430
H         -5.32410       -2.23150        2.60540
H         -2.53930       -1.83700       -1.20360
H         -1.69790       -2.59280        0.20510
H         -1.21750       -0.28450        1.10930
H         -0.16540       -0.79160       -1.76520
H          0.41280       -1.62360       -0.28420
H          1.01620        0.68120        0.68170
H          0.70950        1.36370       -0.95720
H          2.10180       -0.11200       -2.98460
H          6.53140       -1.09490       -0.98870
H          5.87870       -0.46390        3.63040
H          4.15220        0.01300        3.81790
H         -3.19280        0.77860       -0.25040
H         -2.07190        0.79240       -1.65930
H         -1.29270        5.28420       -0.57380
H         -1.88810        4.80820        1.06920
H         -0.28340        4.21770        0.47750
