35

O          4.82580        1.51800        0.80520
C          3.43050        1.52180        0.94610
C          2.77460        0.60940       -0.09930
O          1.36910        0.65910        0.04270
C          0.92060       -0.65560        0.28560
N         -0.41960       -0.84890       -0.29500
C         -0.83350       -1.78800       -1.17880
N         -2.14570       -1.68740       -1.47720
C         -2.58310       -0.64900       -0.73880
C         -1.52790       -0.13140       -0.01140
N         -1.56580        0.96150        0.92520
C         -2.61090        1.94110        1.01640
N         -3.87130        1.65600        0.88230
C         -4.43120        0.33580        0.61700
C         -4.00710       -0.18090       -0.75790
O         -4.17380        0.82280       -1.72520
C          1.97560       -1.60700       -0.25900
C          3.23800       -0.84510        0.02240
O          4.23590       -1.13580       -0.92100
H          5.03140        2.06350        0.00160
H          3.17120        1.16950        1.96750
H          3.03780        2.55860        0.84000
H          3.02290        0.99710       -1.11300
H          0.84790       -0.80350        1.38750
H         -0.20330       -2.55910       -1.59900
H         -0.69060        1.19190        1.44370
H         -2.34270        2.95410        1.28570
H         -4.13360       -0.37470        1.42000
H         -5.53850        0.41900        0.63980
H         -4.66010       -1.05060       -1.00400
H         -4.14840        0.37450       -2.61110
H          1.87170       -1.73570       -1.35870
H          1.95690       -2.59170        0.25660
H          3.59280       -1.07200        1.05640
H          4.58420       -2.03690       -0.69240
