31

C          2.64290       -1.38030        2.78560
O          3.19430       -1.22920        1.47860
C          2.47730       -0.76750        0.36830
C          3.12170       -0.66020       -0.86450
C          2.39340       -0.19760       -1.96470
C          3.04580       -0.06750       -3.30400
N          1.08400        0.13520       -1.81230
C          0.46450        0.02700       -0.60600
N         -0.91830        0.38630       -0.47740
N         -1.65490        0.82560       -1.48640
C         -2.89280        1.06830       -1.00930
C         -4.03680        1.51730       -1.85490
C         -2.95780        0.75710        0.33670
C         -1.67720        0.33260        0.63680
O         -1.21170       -0.09670        1.88480
C         -2.03530       -0.14570        3.04320
N          1.16520       -0.42210        0.47010
H          2.73660       -2.44030        3.09880
H          1.57250       -1.09010        2.83170
H          3.21290       -0.74640        3.49550
H          4.16590       -0.93100       -0.96270
H          3.89690        0.64260       -3.23920
H          2.32140        0.31150       -4.05600
H          3.41980       -1.05840       -3.63690
H         -4.70830        2.17820       -1.26730
H         -4.60790        0.63220       -2.20450
H         -3.66020        2.07980       -2.73490
H         -3.81520        0.82330        0.99330
H         -1.43610       -0.51680        3.89980
H         -2.41500        0.86990        3.28310
H         -2.88790       -0.83700        2.87460
