66

C          1.04270       -5.59890        1.03630
C          0.02730       -5.40560        2.15710
O         -0.47590       -4.07240        2.15460
C         -1.37340       -3.59210        1.19420
N         -1.95880       -4.38100        0.25980
C         -2.69500       -3.50760       -0.44800
C         -3.46190       -3.79510       -1.57270
C         -4.11220       -2.73190       -2.21550
C         -3.98860       -1.41750       -1.72310
C         -3.21930       -1.14510       -0.57240
C         -3.15620        0.23520       -0.08770
O         -3.80720        0.56810        0.94010
O         -2.40470        1.17630       -0.79920
C         -2.20350        2.51550       -0.35530
C         -3.43940        3.33860       -0.55310
O         -4.56370        2.90520       -1.07520
C         -5.38120        3.93330       -1.07110
O         -6.56250        3.88700       -1.50240
O         -4.83090        5.01530       -0.56890
C         -3.60940        4.67230       -0.23300
C         -2.60090        5.59160        0.37180
C         -2.56420       -2.23360        0.04820
N         -1.71870       -2.28320        1.10640
C         -1.11560       -1.21430        1.91010
C          0.26910       -0.88760        1.41200
C          0.46830       -0.47190        0.08630
C          1.74180       -0.11500       -0.35960
C          2.83710       -0.15560        0.51680
C          4.17810        0.27530        0.05910
C          5.24440       -0.63560        0.15970
C          6.50540       -0.31210       -0.34290
C          6.71780        0.92130       -0.95640
C          5.67510        1.84430       -1.05360
C          4.40350        1.54750       -0.53270
C          3.35590        2.59410       -0.59860
N          3.22010        3.45240       -1.63410
O          2.22420        4.22660       -1.31220
C          1.76900        3.87810       -0.13600
O          0.81250        4.44850        0.45050
N          2.45460        2.84520        0.37450
C          2.64740       -0.60630        1.83240
C          1.37220       -0.96620        2.27770
H          1.47390       -6.62030        1.09530
H          0.55710       -5.47450        0.04610
H          1.86170       -4.85530        1.13560
H          0.53250       -5.58960        3.12850
H         -0.80630       -6.13420        2.05680
H         -3.54240       -4.80620       -1.95060
H         -4.71080       -2.92220       -3.09670
H         -4.50460       -0.61390       -2.23500
H         -1.90670        2.52110        0.71590
H         -1.37880        2.96430       -0.94700
H         -2.21060        5.15350        1.31410
H         -3.06880        6.57290        0.59570
H         -1.76220        5.74270       -0.33920
H         -1.08000       -1.54340        2.97170
H         -1.72740       -0.30000        1.91100
H         -0.35870       -0.42440       -0.60640
H          1.87220        0.20530       -1.38600
H          5.09180       -1.61140        0.60500
H          7.31650       -1.02480       -0.26760
H          7.69530        1.16670       -1.35130
H          5.86960        2.80510       -1.51480
H          2.33590        2.38740        1.30530
H          3.48190       -0.65210        2.52140
H          1.24510       -1.28990        3.30320
