52

C         -4.93170        1.81760       -2.41380
N         -4.20000        1.39270       -1.22740
C         -3.06180        0.52450       -1.31380
O         -2.66720        0.11620       -2.44080
C         -2.34940        0.07840       -0.05590
N         -0.89860        0.05840       -0.29580
C          0.03980        0.81390        0.48820
O         -0.36160        1.52070        1.45350
C          1.52110        0.71330        0.20260
C          2.15580       -0.22460        1.26550
C          3.63400       -0.61630        1.02570
C          3.81510       -1.43440       -0.26240
C          4.15680       -1.42030        2.22380
C          2.13670        2.14580        0.10670
O          2.28870        2.73900        1.37540
C          3.41510        2.20060       -0.70260
O          4.48510        2.61430       -0.17840
N          3.40630        1.83480       -2.08590
O          4.55430        1.83250       -2.80470
C         -2.85780       -1.30390        0.48420
C         -2.64190       -2.44520       -0.53630
C         -2.09900       -1.65610        1.78360
C         -4.36450       -1.21960        0.81940
H         -4.25500        2.37760       -3.09300
H         -5.33870        0.93010       -2.94260
H         -5.77440        2.47870       -2.12090
H         -4.52580        1.72570       -0.29210
H         -2.57540        0.83790        0.72450
H         -0.52760       -0.54000       -1.06760
H          1.61990        0.22810       -0.78930
H          2.05580        0.24360        2.26920
H          1.55820       -1.16360        1.30610
H          4.25780        0.29600        0.95830
H          3.14380       -2.31980       -0.26340
H          3.60180       -0.81660       -1.15720
H          4.86580       -1.78430       -0.35130
H          4.07010       -0.82200        3.15600
H          5.22920       -1.67330        2.08040
H          3.57960       -2.36220        2.34690
H          1.41810        2.78190       -0.45610
H          3.03950        2.28900        1.84170
H          2.51440        1.55600       -2.55240
H          4.60890        2.74040       -3.19890
H         -3.00930       -3.40920       -0.12220
H         -3.19820       -2.25300       -1.47730
H         -1.56640       -2.57440       -0.77670
H         -2.21690       -0.84830        2.53790
H         -1.01460       -1.79530        1.58710
H         -2.48570       -2.60080        2.22380
H         -4.71990       -2.16690        1.27980
H         -4.96820       -1.04530       -0.09640
H         -4.56230       -0.39200        1.53440
