23

C          3.05020       -0.52190        0.00710
C          1.74900       -0.68710       -0.77600
N          1.26750        0.62170       -1.22430
C          0.25540        1.34030       -0.51030
C         -0.61080        0.69350        0.27940
C         -1.59880        1.46680        1.10990
O         -0.92900        2.28240        2.03250
C         -0.65240       -0.81680        0.28950
C         -1.67460       -1.36010       -0.71600
O         -2.96430       -0.95100       -0.35540
C          0.70590       -1.41990        0.03620
O          0.94380       -2.54370        0.45080
H          3.45920       -1.51640        0.28400
H          3.80230       -0.00040       -0.62140
H          2.87450        0.07240        0.92960
H          1.82540        1.13470       -1.94270
H          0.21780        2.41980       -0.59470
H         -2.29030        0.77790        1.64600
H         -2.21580        2.10700        0.44420
H         -0.57610        1.68010        2.73890
H         -1.43120       -0.99330       -1.73930
H         -1.63490       -2.47260       -0.71730
H         -3.57280       -1.31330       -1.05070
