41

C         -1.46000       -3.62030        0.83420
C         -2.03260       -2.26730        0.35880
C         -2.50840       -2.42660       -1.09810
C         -3.19970       -1.96300        1.21210
N         -4.11390       -1.72400        1.88050
C         -1.03050       -1.10250        0.44830
C          0.32550       -1.29100        0.78740
C          1.20990       -0.20790        0.84790
C          2.66500       -0.43220        1.16110
N          3.43810       -0.50060       -0.07460
C          3.38260       -1.46270       -1.01020
N          4.23250       -1.20410       -2.02240
C          4.79700       -0.03740       -1.63830
N          4.32330        0.40100       -0.45550
C          0.75440        1.07920        0.54480
C         -0.59090        1.31670        0.20400
C         -1.04690        2.75090       -0.12550
C         -0.78140        3.68050        1.07480
C         -0.29090        3.26800       -1.36420
C         -2.49420        2.83010       -0.42690
N         -3.62560        2.89590       -0.66310
C         -1.46830        0.20890        0.15910
H         -2.24220       -4.41080        0.80400
H         -0.62840       -3.95240        0.17580
H         -1.09260       -3.54830        1.88120
H         -3.02540       -1.51240       -1.46020
H         -1.64210       -2.62330       -1.76620
H         -3.22060       -3.27570       -1.19090
H          0.71830       -2.27480        0.99800
H          2.80920       -1.36960        1.74120
H          3.04080        0.40220        1.79330
H          2.73990       -2.33230       -0.96180
H          5.54630        0.48630       -2.21640
H          1.46260        1.89720        0.57000
H         -1.16290        4.70560        0.87220
H         -1.28850        3.29210        1.98500
H          0.30390        3.76760        1.29060
H          0.80140        3.33000       -1.17490
H         -0.45650        2.59010       -2.23000
H         -0.64120        4.28590       -1.64410
H         -2.50710        0.35070       -0.10100
