45

C          6.12270        2.81740        0.24880
O          5.71070        1.61160        0.88430
C          4.77890        0.71140        0.34650
C          4.46440       -0.43690        1.07920
C          3.54140       -1.36490        0.58880
C          2.90840       -1.15830       -0.65150
C          1.91660       -2.12790       -1.19210
O          1.58630       -2.05970       -2.40750
C          1.27300       -3.19110       -0.33920
C          0.45970       -2.58380        0.77500
O          0.79280       -2.84150        1.96400
C         -0.70490       -1.69220        0.52230
C         -1.20500       -0.88520        1.55610
C         -2.29130       -0.03320        1.34000
C         -2.92050        0.03820        0.07630
C         -4.12020        0.96560       -0.20880
C         -4.54660        1.80220        1.02170
C         -3.75210        1.95050       -1.33990
C         -5.33520        0.11720       -0.64280
C         -2.41490       -0.78450       -0.95300
C         -1.32880       -1.63490       -0.73430
C          3.23230       -0.00450       -1.38890
C          4.15550        0.92230       -0.89630
H          6.59880        2.59050       -0.72850
H          5.25050        3.48890        0.10220
H          6.86340        3.33260        0.89390
H          4.94100       -0.61310        2.03530
H          3.33840       -2.24480        1.18220
H          0.61730       -3.84030       -0.95790
H          2.06340       -3.85360        0.07400
H         -0.74770       -0.90260        2.53780
H         -2.62110        0.56320        2.17730
H         -5.41040        2.45670        0.77330
H         -4.85930        1.14280        1.86010
H         -3.71710        2.45990        1.36030
H         -2.85180        2.53990       -1.06110
H         -3.54020        1.41960       -2.29140
H         -4.58710        2.65850       -1.53360
H         -6.22530        0.76110       -0.81290
H         -5.58730       -0.62690        0.14360
H         -5.13530       -0.42910       -1.58820
H         -2.86090       -0.77630       -1.93820
H         -0.99200       -2.25320       -1.55420
H          2.76390        0.18890       -2.34600
H          4.37580        1.79950       -1.48920
