60

C         -1.59260        4.83240       -0.97090
C         -0.62970        4.81470        0.18470
O         -0.23020        5.88830        0.61270
C         -0.11760        3.50880        0.79710
N          0.72690        3.82980        1.96250
C          0.77670        2.79770       -0.25630
C          1.08850        1.38010        0.16990
C          2.39250        0.86000        0.11770
O          3.42660        1.70950       -0.28820
C          2.63300       -0.48290        0.50870
C          1.59190       -1.22620        1.11880
C          0.26900       -0.71320        1.10360
O         -0.82870       -1.48620        1.49620
C          0.02980        0.59400        0.64460
C         -1.36540        1.19420        0.63870
O         -1.84530        1.29710       -0.69220
C         -2.45100        0.09240       -1.12070
C         -2.62070        0.14460       -2.65270
C         -3.88550       -0.61160       -3.11030
O         -3.74440       -1.04610       -4.43780
C         -4.16500       -1.81360       -2.19490
O         -3.15610       -2.77700       -2.36660
C         -4.22270       -1.35870       -0.71020
O         -3.71930       -0.04760       -0.50420
C         -1.32560        2.60720        1.26220
C          1.93730       -2.49540        1.82320
O          1.14620       -2.99270        2.66960
C          3.26050       -3.12570        1.62490
C          3.55800       -4.37110        2.21000
C          4.81120       -4.95830        2.02410
C          5.77900       -4.31130        1.25620
C          5.49700       -3.07480        0.67180
C          4.23820       -2.47130        0.85310
C          3.93090       -1.16490        0.23140
O          4.73760       -0.68620       -0.61100
H         -1.12450        5.34860       -1.83500
H         -1.87760        3.80980       -1.28630
H         -2.51300        5.37900       -0.67720
H          0.15260        4.32080        2.68730
H          1.07500        2.94670        2.40320
H          0.25990        2.74530       -1.23810
H          1.69820        3.39710       -0.41870
H          4.40000        1.55130       -0.06720
H         -0.81980       -2.49630        1.52560
H         -2.06170        0.60160        1.27760
H         -1.79060       -0.77760       -0.88300
H         -1.71730       -0.29610       -3.12960
H         -2.69870        1.19970       -2.99680
H         -4.76080        0.07710       -3.03840
H         -3.80150       -0.23650       -5.00980
H         -5.14860       -2.25190       -2.48670
H         -3.50450       -3.62620       -1.98790
H         -5.28370       -1.36580       -0.38170
H         -3.68610       -2.07590       -0.04920
H         -1.29400        2.47830        2.36730
H         -2.30210        3.10330        1.06880
H          2.82150       -4.89310        2.80810
H          5.03190       -5.91680        2.47600
H          6.74980       -4.76820        1.11350
H          6.26490       -2.59010        0.08190
