24

C          3.56110       -1.06760       -0.53630
C          3.01660       -1.42210        0.70110
C          1.87040       -0.77520        1.17370
C          1.26540        0.23910        0.41240
C          0.01470        0.91290        0.90760
C         -1.21610        0.05570        0.59240
N         -1.46660       -0.00450       -0.84400
C         -2.91220       -0.05620       -0.98290
C         -3.49940        0.09200        0.40780
N         -2.41790        0.54510        1.26530
C          1.81220        0.58180       -0.83590
C          2.95840       -0.06780       -1.30480
H          4.44750       -1.57010       -0.90130
H          3.48090       -2.20030        1.29280
H          1.45350       -1.06430        2.13060
H         -0.09510        1.92010        0.44820
H          0.08800        1.05710        2.00760
H         -3.24450        0.78010       -1.63440
H         -3.21390       -1.02260       -1.44040
H         -3.86650       -0.89150        0.77470
H         -4.34660        0.81420        0.41370
H         -2.41880        1.59310        1.23660
H          1.35080        1.34900       -1.44540
H          3.37780        0.20190       -2.26550
