29

C          3.66830        1.60880       -0.74410
N          2.79950        0.47650       -0.44560
C          3.24630       -0.90700       -0.29280
C          1.96740       -1.73430        0.00870
O          2.05670       -2.32650        1.27730
C          0.88060       -0.70770       -0.01420
C         -0.48910       -0.89620        0.17620
C         -1.34520        0.22410        0.10380
N         -2.75730        0.08690        0.29410
N         -3.35800       -1.15090        0.56070
C         -4.76820       -1.27280        0.74850
N         -5.62230       -0.13030        0.67090
O         -5.26300       -2.40550        0.98590
C         -0.80600        1.50340       -0.16170
O         -1.65230        2.60870       -0.23320
C          0.57990        1.66050       -0.35440
C          1.39580        0.53040       -0.27420
H          4.72310        1.27260       -0.83030
H          3.35980        2.07350       -1.70380
H          3.59600        2.35960        0.07030
H          3.98190       -0.97510        0.53820
H          3.71950       -1.25450       -1.23650
H          1.80080       -2.49940       -0.78440
H          1.34270       -3.01490        1.31930
H         -0.87440       -1.88780        0.37460
H         -5.23800        0.82020        0.47540
H         -6.65180       -0.23510        0.81050
H         -1.29530        3.53800       -0.42230
H          1.00230        2.63520       -0.56130
