15

N          2.55130       -0.82940        0.09000
C          1.77560        0.37100        0.14480
O          2.37020        1.47240        0.29590
C          0.29820        0.34770        0.01240
C         -0.44720       -0.81340        0.28300
C         -1.83740       -0.80080        0.15470
C         -2.47840        0.37390       -0.23810
N         -1.75130        1.49400       -0.48740
C         -0.39670        1.50950       -0.36940
H          3.58310       -0.78890        0.24480
H          2.13280       -1.74360       -0.18780
H          0.03180       -1.72370        0.61610
H         -2.41360       -1.69270        0.36470
H         -3.55510        0.39700       -0.34040
H          0.13650        2.42680       -0.58330
