30

C         -3.19770       -1.95080        0.60290
C         -1.95230       -2.32450        0.10210
C         -1.01760       -1.35330       -0.26480
C         -1.31780        0.02230       -0.13660
C         -0.39770        1.04670       -0.50410
C          0.98280        0.76750       -1.06250
C          2.02760        0.70860        0.05510
N          1.77280       -0.41840        0.95250
C          2.99840       -1.19130        0.99330
C          3.82680       -0.74050       -0.18230
N          3.36850        0.59730       -0.51570
C         -0.75860        2.39200       -0.30880
C         -2.00720        2.73340        0.20630
C         -2.92120        1.74090        0.54750
C         -2.59030        0.38920        0.38550
C         -3.51740       -0.60140        0.74650
H         -3.91630       -2.70950        0.88500
H         -1.70750       -3.37400       -0.00060
H         -0.06550       -1.70240       -0.63340
H          1.00950       -0.15240       -1.68030
H          1.26520        1.58820       -1.75810
H          3.53230       -0.97760        1.94430
H          2.76830       -2.27610        0.93030
H          4.91280       -0.74830        0.06100
H          3.64650       -1.40990       -1.05150
H          3.96530        1.28400        0.00140
H         -0.06630        3.18640       -0.56090
H         -2.26740        3.77520        0.34260
H         -3.88670        2.03030        0.94570
H         -4.48920       -0.33130        1.14290
