32

C         -4.07800        1.85200       -0.18990
C         -3.06420        0.76430        0.01270
C         -1.69810        1.01620       -0.13980
C         -0.76130       -0.01570        0.05410
C          0.71910        0.30730       -0.12350
C          1.35250       -0.48660       -1.28460
C          2.82590       -0.09860       -1.46830
C          3.61370       -0.29210       -0.16590
C          2.98760        0.50870        0.98350
C          1.51530        0.12510        1.18510
N         -1.20330       -1.27380        0.39480
O         -0.28950       -2.29300        0.58700
C         -2.54140       -1.53070        0.54670
O         -2.93930       -2.68550        0.85890
C         -3.48460       -0.51930        0.35830
H         -4.77360        1.56600       -1.00680
H         -4.65810        2.00000        0.74530
H         -3.59570        2.81540       -0.46030
H         -1.36690        2.01220       -0.40830
H          0.81320        1.38370       -0.39630
H          0.80250       -0.26830       -2.22590
H          1.29670       -1.57960       -1.10500
H          3.27490       -0.72960       -2.26540
H          2.89650        0.96280       -1.79340
H          3.63660       -1.37190        0.10010
H          4.66160        0.04500       -0.31840
H          3.06520        1.59680        0.76640
H          3.55080        0.30710        1.92010
H          1.07950        0.77260        1.97690
H          1.47120       -0.92380        1.54260
H         -0.56850       -3.23400        0.83850
H         -4.54040       -0.73280        0.48080
