23

N         -3.53420        0.94190        0.75970
C         -2.48690        0.17470        0.15420
C         -1.14850        0.50440        0.39740
C         -0.11340       -0.24280       -0.18680
C          1.30980        0.10010        0.06610
C          2.26830       -0.91070        0.25480
C          3.60110       -0.56570        0.49200
N          3.97010        0.74120        0.53900
C          3.06850        1.74190        0.36010
C          1.72510        1.44200        0.12160
C         -0.45720       -1.32270       -1.01640
N         -1.76260       -1.63060       -1.24440
C         -2.77620       -0.91450       -0.68400
O         -3.97180       -1.23550       -0.92260
H         -4.53970        0.71380        0.59430
H         -3.31060        1.75020        1.38230
H         -0.91800        1.33210        1.05690
H          1.98800       -1.95630        0.23760
H          4.34260       -1.33900        0.64230
H          3.39500        2.77250        0.39970
H          1.02290        2.25090       -0.03590
H          0.31430       -1.91050       -1.49830
H         -1.98660       -2.43750       -1.86980
