19
 comment:c
C -1.1833670 1.0284801 -0.6644160
C -1.1830460 1.0282680 0.6648930
C 1.8927120 1.0037940 1.5244100
C 2.0724609 -0.0599640 0.7362530
C 2.0726831 -0.0592810 -0.7367820
C 1.8923440 1.0050790 -1.5239919
H 1.7631420 2.0077901 1.1247960
H 2.2047181 -1.0335280 1.2057170
H 2.2058070 -1.0323100 -1.2071050
H 1.7617440 2.0085759 -1.1234670
H 1.8855190 0.9046110 2.6058221
H 1.8856829 0.9069360 -2.6055031
C -1.0744330 -0.3858290 -1.1264720
O -1.0793200 -0.8330230 -2.2325709
C -1.0738600 -0.3861860 1.1264470
O -1.0781330 -0.8337260 2.2324100
O -0.9842490 -1.1853050 -0.0001610
H -1.2569560 1.8529720 -1.3617730
H -1.2562920 1.8525380 1.3625480
