19
 comment:c
C -0.2754870 0.9179690 -0.7669240
C -0.2752490 0.9176120 0.7673950
C 1.1281130 0.9745460 1.4015290
C 2.0659821 0.0507500 0.6662370
C 2.0657690 0.0509130 -0.6666630
C 1.1277150 0.9749380 -1.4014330
H 1.4965030 2.0080309 1.3465300
H 2.7226100 -0.6029230 1.2346320
H 2.7222221 -0.6026150 -1.2354270
H 1.4961900 2.0083840 -1.3462580
H 1.0458840 0.7169260 2.4610741
H 1.0451730 0.7176270 -2.4610300
C -0.9300010 -0.4040570 -1.1360990
O -1.1292650 -0.8451400 -2.2272990
C -0.9293780 -0.4047220 1.1361510
O -1.1279171 -0.8464980 2.2272029
O -1.2768120 -1.1012930 -0.0000810
H -0.9003480 1.7162310 -1.1808000
H -0.9001640 1.7155550 1.1818100
