19
 comment:c
C -1.0396190 1.0286710 -0.6650480
C -1.0392660 1.0285040 0.6652610
C 1.7781640 1.0042000 1.5196379
C 2.0268390 -0.0493450 0.7344190
C 2.0270300 -0.0485960 -0.7347860
C 1.7780761 1.0056469 -1.5189800
H 1.6184400 2.0025799 1.1181660
H 2.1965630 -1.0157681 1.2062730
H 2.1973319 -1.0144579 -1.2075760
H 1.6176860 2.0035169 -1.1165140
H 1.7531450 0.9041580 2.6007929
H 1.7535390 0.9067500 -2.6002519
C -1.0333600 -0.3887040 -1.1268060
O -1.0955800 -0.8371210 -2.2310200
C -1.0325780 -0.3889830 1.1266780
O -1.0938390 -0.8376730 2.2308359
O -0.9768870 -1.1919030 -0.0001820
H -1.0732059 1.8553571 -1.3625530
H -1.0724740 1.8550210 1.3629839
