19
 comment:c
C -0.5933190 0.9998400 -0.7162980
C -0.5933440 0.9997330 0.7160860
C 1.3771840 1.0094680 1.4053090
C 1.9871430 -0.0476870 0.6868040
C 1.9873270 -0.0468560 -0.6869700
C 1.3772370 1.0109520 -1.4044540
H 1.5290281 2.0300169 1.0601410
H 2.2403040 -0.9628940 1.2171340
H 2.2408030 -0.9613870 -1.2183170
H 1.5285810 2.0311501 -1.0580140
H 1.2897490 0.9148410 2.4857550
H 1.2905700 0.9176390 -2.4850810
C -0.9494500 -0.3840930 -1.1354020
O -1.1350271 -0.8334700 -2.2277160
C -0.9486100 -0.3843060 1.1351610
O -1.1325370 -0.8340020 2.2276239
O -0.9841460 -1.1812940 -0.0001870
H -0.9513540 1.8261790 -1.3210779
H -0.9511700 1.8259881 1.3210911
