19
 comment:c
C -0.3102510 0.9647450 -0.7680780
C -0.3101340 0.9644930 0.7681960
C 1.1215960 1.0088490 1.3562400
C 1.9614180 -0.0385910 0.6663260
C 1.9614760 -0.0380530 -0.6666090
C 1.1215700 1.0097760 -1.3558320
H 1.5382390 2.0098820 1.1804260
H 2.5003901 -0.7787670 1.2516741
H 2.5005209 -0.7777510 -1.2524951
H 1.5378590 2.0107720 -1.1789550
H 1.0727520 0.8584310 2.4375629
H 1.0731450 0.8603590 -2.4373150
C -0.8947410 -0.3905840 -1.1356250
O -1.1428010 -0.8249070 -2.2196729
C -0.8940780 -0.3910280 1.1354740
O -1.1407419 -0.8258160 2.2196569
O -1.0618980 -1.1517510 -0.0001420
H -0.9303490 1.7536860 -1.2034030
H -0.9302060 1.7532430 1.2039011
