19
 comment:c
C -0.2791930 0.9231130 -0.7668770
C -0.2789600 0.9227620 0.7673370
C 1.1265190 0.9783710 1.3976520
C 2.0534029 0.0403160 0.6662790
C 2.0531969 0.0404810 -0.6666900
C 1.1261370 0.9787630 -1.3975490
H 1.5011740 2.0088730 1.3303720
H 2.6985440 -0.6235170 1.2359880
H 2.6981721 -0.6232040 -1.2367600
H 1.5008709 2.0092239 -1.3300830
H 1.0464840 0.7315400 2.4598479
H 1.0458070 0.7322460 -2.4597969
C -0.9253550 -0.4027790 -1.1360670
O -1.1294301 -0.8411320 -2.2274759
C -0.9247250 -0.4034380 1.1361099
O -1.1280450 -0.8424820 2.2273829
O -1.2538019 -1.1088520 -0.0000890
H -0.9044260 1.7198080 -1.1828750
H -0.9042520 1.7191380 1.1838620
