19
 comment:c
C -0.9986310 1.0274529 -0.6653570
C -0.9982990 1.0272950 0.6655110
C 1.7444670 1.0039200 1.5154450
C 2.0159259 -0.0471990 0.7335580
C 2.0161130 -0.0464380 -0.7338940
C 1.7444290 1.0053940 -1.5147450
H 1.5809580 2.0004411 1.1116500
H 2.1935070 -1.0111580 1.2073960
H 2.1942289 -1.0098310 -1.2086810
H 1.5803200 2.0014019 -1.1099420
H 1.7093130 0.9050210 2.5964470
H 1.7097631 0.9076590 -2.5958700
C -1.0213571 -0.3891540 -1.1269130
O -1.1009960 -0.8367590 -2.2304699
C -1.0205450 -0.3894210 1.1267670
O -1.0991400 -0.8372960 2.2302899
O -0.9740350 -1.1932840 -0.0001850
H -1.0265980 1.8543670 -1.3626291
H -1.0259050 1.8540519 1.3629839
