19
 comment:c
C -0.8964810 1.0215620 -0.6668030
C -0.8962460 1.0214320 0.6668130
C 1.6579620 1.0033010 1.4965050
C 1.9964989 -0.0428220 0.7300990
C 1.9966820 -0.0420380 -0.7303710
C 1.6580020 1.0048150 -1.4957190
H 1.5051301 1.9969471 1.0843440
H 2.1852911 -1.0002700 1.2121530
H 2.1859419 -0.9988980 -1.2134060
H 1.5046300 1.9979340 -1.0824990
H 1.5823700 0.9094290 2.5759220
H 1.5829160 0.9121610 -2.5752790
C -0.9926390 -0.3898940 -1.1274050
O -1.1140929 -0.8339290 -2.2290480
C -0.9917930 -0.3901360 1.1272219
O -1.1119961 -0.8344520 2.2288899
O -0.9714050 -1.1956110 -0.0001870
H -0.9275020 1.8493969 -1.3621340
H -0.9269760 1.8491430 1.3623050
