19
 comment:c
C -0.5738330 0.9993210 -0.7231500
C -0.5738570 0.9992020 0.7229530
C 1.3578579 1.0113370 1.4000260
C 1.9872750 -0.0497390 0.6831140
C 1.9874500 -0.0489230 -0.6832890
C 1.3579000 1.0127910 -1.3991930
H 1.5402700 2.0313981 1.0658050
H 2.2520790 -0.9587550 1.2182389
H 2.2525549 -0.9572660 -1.2194080
H 1.5398010 2.0325210 -1.0636621
H 1.2803940 0.9151890 2.4815841
H 1.2812250 0.9179720 -2.4809289
C -0.9484330 -0.3839450 -1.1359479
O -1.1355450 -0.8337270 -2.2276850
C -0.9476060 -0.3841690 1.1357110
O -1.1330730 -0.8342730 2.2275970
O -0.9853200 -1.1801341 -0.0001860
H -0.9627140 1.8223110 -1.3148180
H -0.9625370 1.8221051 1.3148611
