19
 comment:c
C -0.7736340 1.0109270 -0.6729890
C -0.7735250 1.0108320 0.6728370
C 1.5493000 1.0017310 1.4603970
C 1.9865820 -0.0387320 0.7207910
C 1.9867660 -0.0379050 -0.7209930
C 1.5493900 1.0032820 -1.4595300
H 1.4590880 2.0013189 1.0474880
H 2.1815641 -0.9875060 1.2164930
H 2.1821640 -0.9860510 -1.2177300
H 1.4587060 2.0023651 -1.0455160
H 1.4231620 0.9128860 2.5355861
H 1.4238420 0.9157020 -2.5348949
C -0.9648570 -0.3885980 -1.1295370
O -1.1264900 -0.8313900 -2.2275090
C -0.9639920 -0.3888120 1.1293150
O -1.1241500 -0.8319040 2.2273850
O -0.9757150 -1.1924250 -0.0001840
H -0.8707950 1.8433560 -1.3562130
H -0.8704450 1.8431720 1.3562030
