19
 comment:c
C -0.3199550 0.9720430 -0.7699390
C -0.3198470 0.9718060 0.7700030
C 1.1264070 1.0125951 1.3485420
C 1.9596291 -0.0468270 0.6663310
C 1.9597170 -0.0462240 -0.6665960
C 1.1264210 1.0136189 -1.3480600
H 1.5436050 2.0099211 1.1544570
H 2.4734490 -0.8026200 1.2544889
H 2.4736359 -0.8014820 -1.2553560
H 1.5431830 2.0108931 -1.1527621
H 1.0878609 0.8780710 2.4323411
H 1.0884260 0.8802310 -2.4320221
C -0.8992570 -0.3880280 -1.1369570
O -1.1439140 -0.8277850 -2.2199450
C -0.8985790 -0.3884310 1.1367710
O -1.1417480 -0.8286010 2.2199261
O -1.0418260 -1.1549180 -0.0001510
H -0.9335770 1.7625411 -1.2115020
H -0.9334310 1.7621280 1.2119280
