19
 comment:c
C -0.9576570 1.0255290 -0.6657780
C -0.9573580 1.0253830 0.6658730
C 1.7103090 1.0037090 1.5093940
C 2.0066509 -0.0452960 0.7324400
C 2.0068400 -0.0445240 -0.7327480
C 1.7103050 1.0052030 -1.5086560
H 1.5485280 1.9989450 1.1027520
H 2.1895559 -1.0068120 1.2090100
H 2.1902580 -1.0054640 -1.2102810
H 1.5479610 1.9999250 -1.1009949
H 1.6609890 0.9063470 2.5900040
H 1.6614920 0.9090270 -2.5893970
C -1.0095770 -0.3895580 -1.1270421
O -1.1064219 -0.8358360 -2.2299170
C -1.0087450 -0.3898140 1.1268800
O -1.1044620 -0.8363640 2.2297440
O -0.9721370 -1.1945421 -0.0001870
H -0.9828170 1.8526430 -1.3626670
H -0.9821790 1.8523510 1.3629470
