19
 comment:c
C -0.8557580 1.0182869 -0.6680060
C -0.8555630 1.0181700 0.6679610
C 1.6224190 1.0029570 1.4855630
C 1.9918730 -0.0413840 0.7278670
C 1.9920540 -0.0405910 -0.7281170
C 1.6224850 1.0044830 -1.4847500
H 1.4827050 1.9969170 1.0708790
H 2.1825149 -0.9961170 1.2142740
H 2.1831341 -0.9947290 -1.2155170
H 1.4822770 1.9979150 -1.0689790
H 1.5274200 0.9113820 2.5636570
H 1.5279959 0.9141400 -2.5629959
C -0.9821390 -0.3898190 -1.1278620
O -1.1187580 -0.8327090 -2.2284510
C -0.9812850 -0.3900510 1.1276670
O -1.1165770 -0.8332320 2.2283039
O -0.9722130 -1.1954139 -0.0001860
H -0.8991570 1.8471780 -1.3611341
H -0.8986960 1.8469490 1.3612390
