19
 comment:c
C -1.2045031 1.0280920 -0.6643430
C -1.2041910 1.0278690 0.6648770
C 1.9084270 1.0030630 1.5246969
C 2.0777960 -0.0621550 0.7364190
C 2.0780580 -0.0614790 -0.7369890
C 1.9079860 1.0043130 -1.5243380
H 1.7855620 2.0079770 1.1251900
H 2.2027409 -1.0367810 1.2057050
H 2.2040181 -1.0355660 -1.2071190
H 1.7839240 2.0087230 -1.1239390
H 1.9022170 0.9039990 2.6061170
H 1.9023830 0.9062740 -2.6058550
C -1.0792520 -0.3849660 -1.1264030
O -1.0772610 -0.8316930 -2.2326620
C -1.0787200 -0.3853440 1.1264030
O -1.0761770 -0.8324370 2.2325151
O -0.9818220 -1.1835850 -0.0001550
H -1.2862720 1.8518630 -1.3616600
H -1.2856320 1.8514060 1.3625081
