19
 comment:c
C -0.9781270 1.0265760 -0.6655490
C -0.9778100 1.0264241 0.6656740
C 1.7274730 1.0038170 1.5126690
C 2.0110440 -0.0462150 0.7330360
C 2.0112309 -0.0454490 -0.7333570
C 1.7274530 1.0053010 -1.5119500
H 1.5641580 1.9996120 1.1074870
H 2.1915050 -1.0089689 1.2081420
H 2.1922140 -1.0076300 -1.2094190
H 1.5635591 2.0005839 -1.1057550
H 1.6856780 0.9056360 2.5935111
H 1.6861540 0.9082950 -2.5929179
C -1.0154340 -0.3893690 -1.1269720
O -1.1037220 -0.8363590 -2.2301960
C -1.0146110 -0.3896300 1.1268179
O -1.1018120 -0.8368900 2.2300191
O -0.9729540 -1.1939460 -0.0001860
H -1.0041870 1.8535800 -1.3626699
H -1.0035191 1.8532749 1.3629870
