19
 comment:c
C -0.4944350 0.9971340 -0.7482700
C -0.4944460 0.9969810 0.7481290
C 1.2803160 1.0175210 1.3789710
C 1.9853150 -0.0562060 0.6728070
C 1.9854630 -0.0554350 -0.6730080
C 1.2803340 1.0188700 -1.3782090
H 1.5722240 2.0299909 1.0893180
H 2.3058960 -0.9354330 1.2264450
H 2.3062799 -0.9340040 -1.2275580
H 1.5716920 2.0311050 -1.0871700
H 1.2386030 0.9145480 2.4640009
H 1.2394320 0.9172550 -2.4634039
C -0.9421790 -0.3840070 -1.1376640
O -1.1377500 -0.8343460 -2.2270579
C -0.9413960 -0.3842710 1.1374340
O -1.1353360 -0.8349370 2.2269850
O -0.9920820 -1.1752740 -0.0001800
H -0.9902150 1.8042390 -1.2866840
H -0.9900850 1.8039790 1.2868160
