19
 comment:c
C -0.3929520 0.9904360 -0.7696230
C -0.3929090 0.9902410 0.7695700
C 1.1859000 1.0194980 1.3540210
C 1.9749030 -0.0578370 0.6675140
C 1.9750251 -0.0571230 -0.6677420
C 1.1859220 1.0207080 -1.3533700
H 1.5722580 2.0178461 1.1147660
H 2.3849430 -0.8838420 1.2433970
H 2.3852220 -0.8825020 -1.2444130
H 1.5717300 2.0189390 -1.1127250
H 1.1672710 0.9070140 2.4406519
H 1.1680400 0.9095500 -2.4401541
C -0.9257200 -0.3847650 -1.1386520
O -1.1412700 -0.8335120 -2.2246089
C -0.9249900 -0.3850830 1.1384280
O -1.1389340 -0.8341750 2.2245591
O -1.0076309 -1.1672291 -0.0001700
H -0.9740220 1.7823950 -1.2495650
H -0.9739180 1.7820600 1.2498090
