19
 comment:c
C -0.6517070 1.0019161 -0.6965200
C -0.6517330 1.0018870 0.6962350
C 1.4349010 1.0042310 1.4218529
C 1.9861230 -0.0417560 0.6996490
C 1.9864020 -0.0408270 -0.6997690
C 1.4350510 1.0058800 -1.4208580
H 1.4923249 2.0217500 1.0464010
H 2.2110209 -0.9724770 1.2159210
H 2.2114971 -0.9708390 -1.2172329
H 1.4921070 2.0230701 -1.0444510
H 1.3204809 0.9134260 2.4989951
H 1.3207670 0.9161240 -2.4981041
C -0.9523410 -0.3851660 -1.1335760
O -1.1333300 -0.8325240 -2.2276750
C -0.9513980 -0.3852910 1.1333240
O -1.1307170 -0.8329820 2.2275519
O -0.9814220 -1.1848570 -0.0002120
H -0.9125660 1.8351760 -1.3370100
H -0.9125700 1.8351030 1.3367840
