19
 comment:c
C -0.2899370 0.9382740 -0.7668630
C -0.2897340 0.9379480 0.7672550
C 1.1222709 0.9890120 1.3860830
C 2.0160840 0.0102090 0.6663780
C 2.0159390 0.0104410 -0.6667440
C 1.1219690 0.9894850 -1.3859299
H 1.5149400 2.0098310 1.2834610
H 2.6257889 -0.6829490 1.2400140
H 2.6255310 -0.6825090 -1.2407510
H 1.5146430 2.0102711 -1.2829920
H 1.0494980 0.7731440 2.4552970
H 1.0490310 0.7740310 -2.4552181
C -0.9114920 -0.3988610 -1.1356159
O -1.1324050 -0.8301770 -2.2265201
C -0.9108500 -0.3994790 1.1356210
O -1.1308600 -0.8314520 2.2264481
O -1.1819260 -1.1296600 -0.0001100
H -0.9159800 1.7304610 -1.1891840
H -0.9158260 1.7298400 1.1900610
