19
 comment:c
C -0.9372410 1.0243580 -0.6660450
C -0.9369620 1.0242170 0.6661120
C 1.6929940 1.0035760 1.5055799
C 2.0027740 -0.0444470 0.7317580
C 2.0029631 -0.0436710 -0.7320530
C 1.6930060 1.0050770 -1.5048240
H 1.5333980 1.9982430 1.0972739
H 2.1879971 -1.0046270 1.2100040
H 2.1886890 -1.0032700 -1.2112690
H 1.5328380 1.9992220 -1.0954820
H 1.6354440 0.9072710 2.5858841
H 1.6359659 0.9099730 -2.5852640
C -1.0037930 -0.3897130 -1.1271330
O -1.1090660 -0.8352300 -2.2296309
C -1.0029560 -0.3899640 1.1269630
O -1.1070570 -0.8357550 2.2294631
O -0.9716120 -1.1950350 -0.0001870
H -0.9627940 1.8516250 -1.3625920
H -0.9621950 1.8513460 1.3628340
