19
 comment:c
C -0.4132190 0.9925060 -0.7665840
C -0.4131900 0.9923200 0.7665100
C 1.2041880 1.0197710 1.3585860
C 1.9778481 -0.0582520 0.6681430
C 1.9779750 -0.0575240 -0.6683660
C 1.2042060 1.0210110 -1.3579080
H 1.5760220 2.0206020 1.1097540
H 2.3678601 -0.8969640 1.2396120
H 2.3681591 -0.8956010 -1.2406510
H 1.5754859 2.0217049 -1.1076820
H 1.1837280 0.9094360 2.4451580
H 1.1845150 0.9120150 -2.4446340
C -0.9301000 -0.3845580 -1.1385710
O -1.1404800 -0.8339200 -2.2253120
C -0.9293600 -0.3848640 1.1383460
O -1.1381249 -0.8345640 2.2252560
O -1.0035440 -1.1691930 -0.0001730
H -0.9816150 1.7864010 -1.2572449
H -0.9815120 1.7860820 1.2574600
