19
 comment:c
C -0.6915310 1.0042310 -0.6857860
C -0.6915400 1.0041910 0.6854940
C 1.4733770 1.0021070 1.4339221
C 1.9856110 -0.0391750 0.7081360
C 1.9858370 -0.0382590 -0.7082590
C 1.4734989 1.0037640 -1.4329391
H 1.4721100 2.0141590 1.0416340
H 2.1962430 -0.9778340 1.2161670
H 2.1967399 -0.9762500 -1.2174120
H 1.4718540 2.0153921 -1.0395600
H 1.3461010 0.9127390 2.5093000
H 1.3466910 0.9156070 -2.5084751
C -0.9549100 -0.3862560 -1.1321870
O -1.1317050 -0.8318970 -2.2274830
C -0.9539890 -0.3863980 1.1319240
O -1.1291230 -0.8323520 2.2273581
O -0.9796850 -1.1873749 -0.0001960
H -0.8894950 1.8389900 -1.3451930
H -0.8893270 1.8389020 1.3450080
