19
 comment:c
C -0.4335690 0.9941060 -0.7628360
C -0.4335540 0.9939290 0.7627440
C 1.2228800 1.0196739 1.3634690
C 1.9803240 -0.0582450 0.6689480
C 1.9804560 -0.0575050 -0.6691650
C 1.2228950 1.0209430 -1.3627670
H 1.5779340 2.0233231 1.1048909
H 2.3515711 -0.9084380 1.2359780
H 2.3518910 -0.9070550 -1.2370380
H 1.5773931 2.0244329 -1.1027950
H 1.1989681 0.9112730 2.4498429
H 1.1997690 0.9138910 -2.4492970
C -0.9338480 -0.3843900 -1.1384240
O -1.1397361 -0.8341740 -2.2258880
C -0.9330970 -0.3846850 1.1381969
O -1.1373640 -0.8348040 2.2258270
O -1.0000660 -1.1709260 -0.0001750
H -0.9871470 1.7905990 -1.2646950
H -0.9870420 1.7902960 1.2648870
