19
 comment:c
C -0.6127330 1.0004270 -0.7094460
C -0.6127580 1.0003330 0.7092170
C 1.3964630 1.0076030 1.4106600
C 1.9868580 -0.0455990 0.6908750
C 1.9870560 -0.0447480 -0.6910300
C 1.3965310 1.0091220 -1.4097800
H 1.5170450 2.0279181 1.0549170
H 2.2293980 -0.9665220 1.2163970
H 2.2299170 -0.9649910 -1.2175950
H 1.5166270 2.0290699 -1.0528110
H 1.2991900 0.9143750 2.4899540
H 1.2999860 0.9171850 -2.4892550
C -0.9503750 -0.3843360 -1.1348180
O -1.1344970 -0.8331810 -2.2277110
C -0.9495190 -0.3845340 1.1345720
O -1.1319830 -0.8336970 2.2276130
O -0.9831230 -1.1824590 -0.0001890
H -0.9388920 1.8296191 -1.3268740
H -0.9387080 1.8294470 1.3268501
