19
 comment:c
C -0.7942770 1.0127960 -0.6712530
C -0.7941460 1.0126960 0.6711290
C 1.5678880 1.0020540 1.4669540
C 1.9874541 -0.0392890 0.7229920
C 1.9876370 -0.0384720 -0.7232050
C 1.5679740 1.0035970 -1.4661020
H 1.4620039 1.9993761 1.0518900
H 2.1807859 -0.9897520 1.2162210
H 2.1813891 -0.9883170 -1.2174571
H 1.4616230 2.0004089 -1.0499440
H 1.4474690 0.9129160 2.5427439
H 1.4481180 0.9157090 -2.5420611
C -0.9685560 -0.3890460 -1.1290140
O -1.1247910 -0.8315390 -2.2276790
C -0.9676940 -0.3892650 1.1288000
O -1.1224920 -0.8320570 2.2275500
O -0.9747280 -1.1934650 -0.0001840
H -0.8736620 1.8442280 -1.3579140
H -0.8732870 1.8440330 1.3579310
