17
 comment:c
C 0.5551720 1.0413820 0.5025220
C -1.9725530 0.1751700 -0.3960320
C -1.9670360 -1.1521280 -0.4428670
C 0.6304040 -1.9826010 0.5522510
C 1.2884610 -1.1820010 -0.2945220
C 1.2478510 0.2782500 -0.3485790
H -2.3623569 0.7146470 0.4657310
H -2.3448091 -1.7593220 0.3767610
H 0.7105200 -3.0631659 0.4756490
H 1.8889540 -1.6530700 -1.0721990
H -1.5906830 -1.6916450 -1.3065870
H -1.6057650 0.7835430 -1.2174010
H 0.0136500 -1.6031801 1.3620520
H 0.0726740 0.6299640 1.3871250
H 1.7277700 0.7698820 -1.1918590
O 0.3878840 2.3764839 0.2994770
H -0.0738190 2.7560439 1.0547180
