17
 comment:c
C 0.2365640 0.9495130 0.4142420
C -1.5101399 0.2515960 -0.2546360
C -1.4867120 -1.2319520 -0.2728990
C 0.1915360 -1.8407540 0.4038130
C 1.2124040 -1.1266280 -0.3476060
C 1.2311110 0.2234000 -0.3484280
H -2.2078471 0.6955360 0.4602410
H -2.1966660 -1.7137630 0.4030070
H 0.2295330 -2.9291141 0.3239810
H 1.8136100 -1.6726320 -1.0719490
H -1.5309680 -1.6838011 -1.2649790
H -1.5634440 0.7472140 -1.2243510
H 0.0895150 -1.5408109 1.4503050
H 0.1197260 0.6260660 1.4540941
H 1.8368680 0.7882050 -1.0538009
O 0.3277920 2.3310370 0.2808580
H -0.3014540 2.7272151 0.8944140
