17
 comment:c
C 0.1136040 0.9119950 0.3759210
C -1.3741651 0.2997910 -0.2019520
C -1.3564100 -1.2584310 -0.2186020
C 0.0730970 -1.8064260 0.3576240
C 1.2019020 -1.1187940 -0.3609680
C 1.2160140 0.2147490 -0.3587180
H -2.1722190 0.6809150 0.4481500
H -2.1642871 -1.6735870 0.3952730
H 0.1375970 -2.8959260 0.2738180
H 1.8912060 -1.6950949 -0.9742540
H -1.4896510 -1.6463180 -1.2343930
H -1.5289450 0.7220090 -1.2005030
H 0.1001740 -1.5684210 1.4304510
H 0.1348110 0.6209560 1.4393080
H 1.9021630 0.8126350 -0.9540400
O 0.3151630 2.3141699 0.2741800
H -0.3129530 2.7437861 0.8672020
