17
 comment:c
C 0.7403620 0.9837390 0.4986720
C -2.5959139 0.2971920 -0.2851640
C -2.2836430 -0.9422850 -0.6470170
C 0.9724040 -2.0343421 0.6466680
C 1.6696060 -1.2039720 -0.1331140
C 1.3224920 0.1964540 -0.4071720
H -3.5902460 0.5506630 0.0771400
H -3.0086210 -1.7519211 -0.5962210
H 1.3148890 -3.0466220 0.8423450
H 2.5749769 -1.5744150 -0.6147930
H -1.2900400 -1.1958920 -1.0099410
H -1.8725860 1.1080149 -0.3439410
H 0.0306650 -1.7342139 1.1021240
H 0.5330270 0.6351020 1.5103869
H 1.5647579 0.6170390 -1.3810670
O 0.3613500 2.2606249 0.2072690
H 0.0883390 2.7010610 1.0194130
