17
 comment:c
C 0.3811930 0.9870490 0.4478030
C -1.6494000 0.1937960 -0.3052160
C -1.6358340 -1.1743751 -0.3305080
C 0.3440820 -1.8848760 0.4494310
C 1.2057070 -1.1577020 -0.3296890
C 1.2299221 0.2521070 -0.3346540
H -2.1495459 0.7184310 0.5065410
H -2.1422479 -1.7443620 0.4440840
H 0.2937770 -2.9659090 0.3443040
H 1.7458709 -1.6682270 -1.1254370
H -1.4795440 -1.7028300 -1.2646550
H -1.4886760 0.7740000 -1.2074690
H 0.0017140 -1.5090920 1.4086961
H 0.0138300 0.6081720 1.3969570
H 1.7777350 0.7805600 -1.1116689
O 0.3273830 2.3405061 0.2823940
H -0.2883270 2.7123499 0.9233210
