17
 comment:c
C 0.0455610 0.9453490 0.4156650
C -1.2063620 0.3240410 -0.2024350
C -1.3033340 -1.1559620 0.1769120
C -0.0141510 -1.9569710 -0.1219770
C 1.2132519 -1.1059160 -0.3257670
C 1.2538440 0.2011120 -0.0807190
H -2.1060350 0.8536990 0.1398980
H -1.5303050 -1.2208790 1.2487770
H -0.1528270 -2.5821900 -1.0138210
H 2.1053360 -1.6163189 -0.6864770
H -2.1518700 -1.6155100 -0.3413830
H -1.1406400 0.4534830 -1.2893440
H 0.1767090 -2.6637189 0.6969500
H -0.0151900 0.8452540 1.5150530
H 2.1592939 0.7849680 -0.2302150
O 0.2104440 2.3121040 0.0745360
H -0.5511430 2.7906020 0.4246260
