17
 comment:c
C 0.0836440 0.9102290 0.4169690
C -1.2274640 0.3517840 -0.1502550
C -1.3320690 -1.1833930 -0.0428670
C 0.0274660 -1.9032511 0.1462220
C 1.1972740 -1.1175220 -0.3878270
C 1.2364260 0.2038860 -0.2362650
H -2.0829120 0.8276300 0.3479430
H -1.9907030 -1.4596150 0.7879280
H -0.0130910 -2.8982179 -0.3093200
H 2.0201659 -1.6511170 -0.8588730
H -1.8135231 -1.5626510 -0.9501020
H -1.2557980 0.6635760 -1.2000740
H 0.1932010 -2.0739591 1.2198390
H 0.1156530 0.7284960 1.5071599
H 2.0692780 0.8152420 -0.5751040
O 0.2176730 2.2977920 0.1557340
H -0.5216090 2.7471089 0.5836060
