17
 comment:c
C 0.0884530 0.8886920 0.3871090
C -1.2560030 0.3520490 -0.1399580
C -1.2972000 -1.1952029 -0.1704000
C 0.0317030 -1.8367651 0.2861150
C 1.1947060 -1.1346840 -0.3658050
C 1.2127510 0.1961850 -0.3272630
H -2.0722950 0.7522080 0.4759980
H -2.1145661 -1.5722870 0.4540830
H 0.0270530 -2.9085469 0.0638020
H 1.9767460 -1.7076920 -0.8583830
H -1.5039380 -1.5323660 -1.1915190
H -1.3847420 0.7639290 -1.1465970
H 0.1178260 -1.7472900 1.3796639
H 0.1583460 0.6447840 1.4632699
H 1.9928080 0.8079260 -0.7732120
O 0.2254230 2.2864089 0.2104790
H -0.4701770 2.7147491 0.7240920
