17
 comment:c
C 0.0552060 0.9356800 0.4168380
C -1.2062920 0.3329520 -0.2015350
C -1.3212030 -1.1600209 0.1252630
C 0.0011950 -1.9539510 -0.0462430
C 1.2093180 -1.1052110 -0.3500490
C 1.2510300 0.2051280 -0.1252080
H -2.1001811 0.8582010 0.1621210
H -1.6713450 -1.2635880 1.1595210
H -0.1076080 -2.7088261 -0.8346110
H 2.0848670 -1.6178271 -0.7456500
H -2.1008601 -1.6041470 -0.5026400
H -1.1469541 0.4975750 -1.2836790
H 0.2029240 -2.5245979 0.8706170
H 0.0138820 0.8062410 1.5140830
H 2.1388459 0.7991010 -0.3295520
O 0.2117710 2.3104310 0.1051670
H -0.5465770 2.7790041 0.4751100
