17
 comment:c
C 0.7495700 0.9970340 0.5060420
C -2.5806170 0.2731920 -0.3038550
C -2.2940011 -0.9802080 -0.6378530
C 0.9531710 -2.0240250 0.6388630
C 1.6529480 -1.1969550 -0.1421750
C 1.3182310 0.2081660 -0.4070010
H -3.5658920 0.5527670 0.0639910
H -3.0318451 -1.7757150 -0.5574680
H 1.2866710 -3.0406940 0.8271890
H 2.5508740 -1.5742750 -0.6323940
H -1.3091850 -1.2599000 -1.0056100
H -1.8450069 1.0702920 -0.3906060
H 0.0182350 -1.7163560 1.1030750
H 0.5445340 0.6456520 1.5172800
H 1.5589740 0.6311180 -1.3802460
O 0.3825030 2.2790639 0.2228560
H 0.1117080 2.7164371 1.0373340
