17
 comment:c
C 0.2917320 0.9639000 0.4272060
C -1.5628030 0.2284140 -0.2745140
C -1.5422620 -1.2099630 -0.2949530
C 0.2483790 -1.8565490 0.4209370
C 1.2107190 -1.1359360 -0.3406200
C 1.2309960 0.2317770 -0.3427990
H -2.1910729 0.7067520 0.4775390
H -2.1827810 -1.7281560 0.4179870
H 0.2546680 -2.9429901 0.3338640
H 1.7832340 -1.6683871 -1.0979420
H -1.5196871 -1.6938200 -1.2691160
H -1.5429440 0.7599790 -1.2229130
H 0.0622440 -1.5271209 1.4430690
H 0.0838440 0.6193960 1.4411269
H 1.8106090 0.7831380 -1.0802040
O 0.3281180 2.3346281 0.2817360
H -0.2981860 2.7203960 0.9044510
