17
 comment:c
C 0.0918510 0.9001070 0.4047150
C -1.2488950 0.3534740 -0.1155830
C -1.3086240 -1.1916471 -0.1489860
C 0.0270580 -1.8649360 0.2352870
C 1.1983401 -1.1312420 -0.3648870
C 1.2264450 0.1971970 -0.2829350
H -2.0667040 0.7613410 0.4933400
H -2.0977190 -1.5612340 0.5149640
H 0.0138470 -2.9166160 -0.0688790
H 1.9999200 -1.6885120 -0.8443770
H -1.5780391 -1.5159310 -1.1595980
H -1.3699490 0.7624780 -1.1243750
H 0.1276650 -1.8640760 1.3311100
H 0.1595890 0.6993890 1.4898570
H 2.0328889 0.8074970 -0.6818250
O 0.2172760 2.2918251 0.1676810
H -0.5052130 2.7322760 0.6318390
