17
 comment:c
C 0.3982700 0.9918920 0.4526070
C -1.6676650 0.1891080 -0.3114640
C -1.6556040 -1.1691660 -0.3378150
C 0.3632910 -1.8916110 0.4561300
C 1.2055020 -1.1617150 -0.3281380
C 1.2307481 0.2560190 -0.3337420
H -2.1444540 0.7197340 0.5102190
H -2.1367700 -1.7463810 0.4471890
H 0.3046560 -2.9714921 0.3468440
H 1.7410820 -1.6685810 -1.1293530
H -1.4727710 -1.7033360 -1.2635339
H -1.4798830 0.7753060 -1.2043840
H -0.0078840 -1.5085090 1.4011340
H 0.0033860 0.6065960 1.3875340
H 1.7734870 0.7803950 -1.1169230
O 0.3275200 2.3421180 0.2825870
H -0.2850240 2.7112999 0.9279690
