17
 comment:c
C 0.0340300 0.9608860 0.4223670
C -1.2122120 0.3131090 -0.1777180
C -1.2734489 -1.1592340 0.2323510
C -0.0376500 -1.9440449 -0.2391260
C 1.2165660 -1.1087900 -0.2873420
C 1.2559850 0.1901220 0.0011670
H -2.1155040 0.8399880 0.1587810
H -1.3428780 -1.2125360 1.3273110
H -0.2135950 -2.3621581 -1.2405930
H 2.1306260 -1.6189740 -0.5890330
H -2.1839211 -1.6272891 -0.1578600
H -1.1556880 0.4157190 -1.2686160
H 0.1252290 -2.8109961 0.4147300
H -0.0471870 0.9258290 1.5244091
H 2.1849940 0.7540230 -0.0507420
O 0.2122340 2.3066771 0.0084810
H -0.5511770 2.8071940 0.3221440
