17
 comment:c
C 0.0729710 0.9190160 0.4186540
C -1.2160560 0.3458280 -0.1767070
C -1.3352320 -1.1747940 0.0226330
C 0.0223950 -1.9272079 0.0804450
C 1.2014470 -1.1099960 -0.3820920
C 1.2426780 0.2068130 -0.1975220
H -2.0910189 0.8486160 0.2573290
H -1.8888310 -1.3806610 0.9456710
H -0.0392370 -2.8580840 -0.4936510
H 2.0440609 -1.6322490 -0.8312370
H -1.9434789 -1.5833980 -0.7909420
H -1.1976660 0.5947950 -1.2436450
H 0.2143530 -2.2365510 1.1175690
H 0.0753380 0.7524410 1.5117390
H 2.0957720 0.8145220 -0.4896570
O 0.2145610 2.3030670 0.1425580
H -0.5340740 2.7580659 0.5475470
