17
 comment:c
C 0.0357070 0.9582210 0.4202370
C -1.2107379 0.3145850 -0.1841570
C -1.2780989 -1.1577851 0.2253730
C -0.0341650 -1.9476520 -0.2199640
C 1.2162440 -1.1085620 -0.2934910
C 1.2558450 0.1922150 -0.0140270
H -2.1138330 0.8427740 0.1509220
H -1.3701890 -1.2090900 1.3186400
H -0.2050740 -2.3993919 -1.2074000
H 2.1270299 -1.6185941 -0.6051320
H -2.1813180 -1.6254120 -0.1817690
H -1.1511630 0.4189390 -1.2746290
H 0.1333100 -2.7921290 0.4616930
H -0.0428100 0.9101140 1.5219890
H 2.1814311 0.7597690 -0.0833170
O 0.2114290 2.3086541 0.0215930
H -0.5518610 2.8046830 0.3425200
