17
 comment:c
C 0.0704200 0.9213550 0.4186250
C -1.2138690 0.3442710 -0.1818060
C -1.3346900 -1.1723540 0.0382200
C 0.0201140 -1.9325380 0.0631000
C 1.2025620 -1.1087540 -0.3788360
C 1.2440571 0.2070420 -0.1877030
H -2.0924489 0.8517320 0.2393880
H -1.8606970 -1.3614130 0.9808820
H -0.0475590 -2.8428690 -0.5426730
H 2.0500829 -1.6289610 -0.8212970
H -1.9715940 -1.5868270 -0.7501110
H -1.1869870 0.5794050 -1.2517509
H 0.2160990 -2.2796130 1.0873430
H 0.0660210 0.7591340 1.5123450
H 2.1022279 0.8132230 -0.4679990
O 0.2140420 2.3043430 0.1383210
H -0.5363480 2.7609990 0.5381650
