17
 comment:c
C 0.5607000 1.0424150 0.5039130
C -1.9939590 0.1748430 -0.4004650
C -1.9872500 -1.1523050 -0.4487800
C 0.6459270 -1.9854600 0.5564850
C 1.2991860 -1.1818410 -0.2908880
C 1.2477190 0.2784390 -0.3505770
H -2.3883641 0.7131780 0.4599300
H -2.3686881 -1.7605470 0.3684340
H 0.7411020 -3.0652871 0.4872530
H 1.9111670 -1.6501890 -1.0612490
H -1.6034570 -1.6905150 -1.3101630
H -1.6209570 0.7841480 -1.2184440
H 0.0158020 -1.6088380 1.3573860
H 0.0806090 0.6315150 1.3902830
H 1.7240320 0.7697750 -1.1960990
O 0.3954380 2.3780110 0.3014780
H -0.0562230 2.7597890 1.0616471
