17
 comment:c
C 0.5663340 1.0433050 0.5052660
C -2.0155859 0.1744420 -0.4047090
C -2.0073831 -1.1525670 -0.4546040
C 0.6609790 -1.9878920 0.5604160
C 1.3103470 -1.1815510 -0.2871350
C 1.2477649 0.2785580 -0.3526150
H -2.4155099 0.7114470 0.4539690
H -2.3933179 -1.7619790 0.3596770
H 0.7707870 -3.0667901 0.4988940
H 1.9341050 -1.6470630 -1.0497611
H -1.6155980 -1.6893250 -1.3134040
H -1.6359260 0.7848150 -1.2189200
H 0.0173810 -1.6140150 1.3519630
H 0.0895970 0.6330900 1.3939559
H 1.7201930 0.7696290 -1.2004930
O 0.4030350 2.3793719 0.3034780
H -0.0397710 2.7630229 1.0678890
