17
 comment:c
C 0.6011110 1.0463040 0.5128930
C -2.1266680 0.1713220 -0.4215590
C -2.1055009 -1.1550570 -0.4816870
C 0.7255700 -1.9937770 0.5737900
C 1.3721830 -1.1781009 -0.2658910
C 1.2530900 0.2786170 -0.3636970
H -2.5756299 0.6980320 0.4189800
H -2.5302880 -1.7733500 0.3063390
H 0.9022970 -3.0654080 0.5577150
H 2.0612490 -1.6285470 -0.9800130
H -1.6562060 -1.6813281 -1.3189930
H -1.7016900 0.7899350 -1.2070431
H 0.0080940 -1.6324300 1.3058569
H 0.1555050 0.6400400 1.4201100
H 1.6971149 0.7669020 -1.2284811
O 0.4377650 2.3829069 0.3116560
H 0.0283990 2.7722459 1.0915760
