17
 comment:c
C 0.4469760 1.4509740 0.5121510
C -1.5481840 0.6681800 -0.2301060
C -1.5332950 -0.7118000 -0.2544230
C 0.4083410 -1.4099680 0.5121760
C 1.2897830 -0.6846690 -0.2626000
C 1.3130260 0.7166120 -0.2669630
H -2.0735421 1.1855410 0.5706070
H -2.0663509 -1.2731210 0.5088840
H 0.3686250 -2.4922760 0.4113300
H 1.8354270 -1.1991930 -1.0519270
H -1.4042881 -1.2332280 -1.1971260
H -1.4157350 1.2412310 -1.1417741
H 0.0964370 -1.0422440 1.4854670
H 0.1101730 1.0796220 1.4761610
H 1.8663200 1.2492861 -1.0372910
O 0.4108310 2.8078370 0.3512060
H -0.2075440 3.1822169 0.9882270
