17
 comment:c
C 0.5933770 1.0459790 0.5114510
C -2.1044970 0.1718980 -0.4191460
C -2.0860081 -1.1546330 -0.4764950
C 0.7140710 -1.9933020 0.5720210
C 1.3589081 -1.1790140 -0.2705530
C 1.2510231 0.2786880 -0.3614510
H -2.5405450 0.7012190 0.4265650
H -2.5000670 -1.7707011 0.3189200
H 0.8783760 -3.0667119 0.5459330
H 2.0340450 -1.6325800 -0.9958670
H -1.6506881 -1.6835051 -1.3194400
H -1.6910371 0.7884000 -1.2123359
H 0.0123040 -1.6295800 1.3179229
H 0.1407990 0.6392020 1.4148520
H 1.7013370 0.7677410 -1.2225190
O 0.4316850 2.3827560 0.3104490
H 0.0163960 2.7713580 1.0876170
