17
 comment:c
C 0.7365760 1.0352139 0.5267070
C -2.4244399 0.1995440 -0.3880950
C -2.3049450 -1.1125100 -0.5583590
C 0.8400470 -1.9940161 0.5787380
C 1.5707440 -1.1721750 -0.1797980
C 1.3093340 0.2563620 -0.3926780
H -3.2466011 0.6263070 0.1831250
H -3.0210040 -1.8124850 -0.1326020
H 1.1262610 -3.0321519 0.7228930
H 2.4437239 -1.5756500 -0.6936650
H -1.4822590 -1.5402460 -1.1259930
H -1.7097340 0.9009170 -0.8116700
H -0.0726120 -1.6608260 1.0679300
H 0.4697480 0.6550630 1.5127749
H 1.6091070 0.7067720 -1.3368340
O 0.4404880 2.3418651 0.2798810
H 0.1393350 2.7564020 1.0953720
