17
 comment:c
C 0.4597430 1.0113860 0.4723860
C -1.7446080 0.1791840 -0.3363670
C -1.7388790 -1.1572080 -0.3681550
C 0.4394910 -1.9216790 0.4860180
C 1.2111090 -1.1734200 -0.3232870
C 1.2380100 0.2675280 -0.3335900
H -2.1539071 0.7214630 0.5136620
H -2.1451409 -1.7513580 0.4459970
H 0.3768740 -2.9997809 0.3676540
H 1.7398270 -1.6690050 -1.1362890
H -1.4691790 -1.7023340 -1.2656840
H -1.4709730 0.7783840 -1.1980470
H -0.0245880 -1.5211570 1.3806940
H -0.0077850 0.6071040 1.3646820
H 1.7624720 0.7775650 -1.1381820
O 0.3314480 2.3513310 0.2841440
H -0.2589070 2.7119579 0.9543360
