17
 comment:c
C 0.0311340 0.9661310 0.4276580
C -1.2158140 0.3105980 -0.1620680
C -1.2648180 -1.1630690 0.2440310
C -0.0438820 -1.9352180 -0.2767200
C 1.2170980 -1.1087620 -0.2756420
C 1.2560110 0.1858930 0.0321510
H -2.1188550 0.8338690 0.1804870
H -1.2935520 -1.2243260 1.3405720
H -0.2286620 -2.2868099 -1.3022020
H 2.1369710 -1.6194770 -0.5581920
H -2.1870010 -1.6312120 -0.1176560
H -1.1676480 0.4129800 -1.2535740
H 0.1100430 -2.8427601 0.3215620
H -0.0540830 0.9590500 1.5299020
H 2.1909189 0.7422950 0.0147510
O 0.2143710 2.3012531 -0.0194250
H -0.5489880 2.8113050 0.2787570
