17
 comment:c
C 0.0413640 0.9503570 0.4163280
C -1.2075410 0.3198830 -0.1978570
C -1.2931300 -1.1556380 0.1990150
C -0.0224080 -1.9550380 -0.1611380
C 1.2147840 -1.1070610 -0.3127160
C 1.2548521 0.1980400 -0.0562350
H -2.1090450 0.8499470 0.1388370
H -1.4626290 -1.2102680 1.2823670
H -0.1753480 -2.5098410 -1.0968350
H 2.1146340 -1.6170430 -0.6544920
H -2.1673961 -1.6197990 -0.2702950
H -1.1425329 0.4362040 -1.2864980
H 0.1593710 -2.7224171 0.6033440
H -0.0271680 0.8683560 1.5167490
H 2.1686871 0.7759010 -0.1757020
O 0.2102920 2.3118050 0.0559320
H -0.5522320 2.7963099 0.3956120
