17
 comment:c
C 0.0478170 0.9429060 0.4157550
C -1.2060400 0.3262380 -0.2034060
C -1.3082490 -1.1565900 0.1647360
C -0.0101300 -1.9570481 -0.1027510
C 1.2123510 -1.1054960 -0.3321430
C 1.2532680 0.2023560 -0.0921290
H -2.1045480 0.8552460 0.1430130
H -1.5652330 -1.2290829 1.2291260
H -0.1412640 -2.6168101 -0.9701860
H 2.1004691 -1.6162831 -0.7018170
H -2.1418121 -1.6130060 -0.3798270
H -1.1408770 0.4634830 -1.2892931
H 0.1846080 -2.6310380 0.7425360
H -0.0086320 0.8348090 1.5146210
H 2.1544709 0.7889260 -0.2556860
O 0.2106930 2.3119090 0.0828530
H -0.5502620 2.7877500 0.4378920
