17
 comment:c
C 0.7507790 1.0245700 0.5218920
C -2.4964931 0.2222210 -0.3601610
C -2.3137619 -1.0731930 -0.5911880
C 0.8844490 -2.0025511 0.6011130
C 1.6054780 -1.1793489 -0.1648590
C 1.3160940 0.2409970 -0.3979230
H -3.4104130 0.5944450 0.0986170
H -3.0682311 -1.8122621 -0.3298200
H 1.1874239 -3.0331960 0.7634130
H 2.4886770 -1.5736890 -0.6682510
H -1.4005851 -1.4466230 -1.0485970
H -1.7447950 0.9634210 -0.6219370
H -0.0371520 -1.6773140 1.0792180
H 0.5134510 0.6558940 1.5198010
H 1.5878420 0.6803130 -1.3556581
O 0.4263130 2.3221500 0.2610950
H 0.1357720 2.7445681 1.0764910
