17
 comment:c
C 0.0898130 0.9064440 0.4139460
C -1.2390310 0.3542700 -0.1238050
C -1.3226720 -1.1885170 -0.0987360
C 0.0272900 -1.8863569 0.1884880
C 1.1975460 -1.1246480 -0.3776890
C 1.2322910 0.2003090 -0.2570150
H -2.0737619 0.7952530 0.4372990
H -2.0539429 -1.5200790 0.6464720
H 0.0014500 -2.9122801 -0.1934050
H 2.0107050 -1.6684550 -0.8535260
H -1.6963630 -1.5349849 -1.0679240
H -1.3187480 0.7224300 -1.1523250
H 0.1608050 -1.9727960 1.2769620
H 0.1439020 0.7219690 1.5027100
H 2.0536780 0.8112240 -0.6233690
O 0.2180370 2.2949171 0.1550930
H -0.5123530 2.7425671 0.5996710
