17
 comment:c
C 0.6377270 1.0464489 0.5192850
C -2.2117641 0.1708580 -0.4243990
C -2.1802499 -1.1545780 -0.5008320
C 0.7624390 -1.9934210 0.5748540
C 1.4291540 -1.1739010 -0.2444330
C 1.2660600 0.2772580 -0.3725050
H -2.7288461 0.6841030 0.3845700
H -2.6656330 -1.7843250 0.2419450
H 0.9832660 -3.0565939 0.6037270
H 2.1783700 -1.6112241 -0.9043070
H -1.6609300 -1.6676030 -1.3055480
H -1.7247390 0.8006630 -1.1638089
H -0.0223810 -1.6410871 1.2394580
H 0.2352570 0.6440850 1.4484860
H 1.6765070 0.7599590 -1.2569160
O 0.4530340 2.3794839 0.3114940
H 0.0711150 2.7724710 1.1033770
