17
 comment:c
C 0.0916700 0.9036400 0.4093150
C -1.2466240 0.3539400 -0.1121300
C -1.3131030 -1.1908150 -0.1362760
C 0.0264420 -1.8739470 0.2174950
C 1.1989340 -1.1293041 -0.3664260
C 1.2293071 0.1979770 -0.2702710
H -2.0676351 0.7685130 0.4878880
H -2.0871210 -1.5532830 0.5489820
H 0.0096960 -2.9166191 -0.1163520
H 2.0064509 -1.6812000 -0.8423160
H -1.6120700 -1.5164610 -1.1380889
H -1.3600169 0.7555450 -1.1247900
H 0.1353520 -1.9059100 1.3119370
H 0.1567570 0.7143380 1.4966180
H 2.0429139 0.8080540 -0.6548110
O 0.2169420 2.2932589 0.1571130
H -0.5081110 2.7383051 0.6128750
