17
 comment:c
C 0.5723430 1.0441060 0.5066920
C -2.0375559 0.1739300 -0.4087820
C -2.0273070 -1.1529580 -0.4602970
C 0.6753840 -1.9898820 0.5639730
C 1.3218900 -1.1811240 -0.2832480
C 1.2480750 0.2786380 -0.3547020
H -2.4442570 0.7093910 0.4476720
H -2.4186850 -1.7637089 0.3504240
H 0.7994450 -3.0676680 0.5105550
H 1.9577640 -1.6437221 -1.0376290
H -1.6264760 -1.6880790 -1.3160419
H -1.6506250 0.7855430 -1.2187240
H 0.0180740 -1.6186980 1.3455679
H 0.0999440 0.6346920 1.3982410
H 1.7160810 0.7693940 -1.2052341
O 0.4105800 2.3805561 0.3054290
H -0.0244400 2.7657700 1.0734971
