17
 comment:c
C 0.6700940 1.0457180 0.5244720
C -2.2691319 0.1733460 -0.4199350
C -2.2286711 -1.1508070 -0.5141210
C 0.7812170 -1.9917290 0.5712950
C 1.4724560 -1.1709440 -0.2255750
C 1.2775019 0.2743780 -0.3795110
H -2.8574769 0.6733080 0.3473800
H -2.7787089 -1.7916170 0.1720100
H 1.0288010 -3.0472910 0.6389830
H 2.2692759 -1.5977440 -0.8349270
H -1.6375819 -1.6508110 -1.2766550
H -1.7175480 0.8142890 -1.1023200
H -0.0556080 -1.6457390 1.1731319
H 0.3099170 0.6477420 1.4729620
H 1.6544110 0.7494330 -1.2829159
O 0.4544080 2.3725941 0.3063450
H 0.1035310 2.7713721 1.1096309
