17
 comment:c
C 0.0283290 0.9758310 0.4418770
C -1.2259240 0.3080330 -0.1184150
C -1.2504700 -1.1731679 0.2598230
C -0.0544180 -1.9115750 -0.3499880
C 1.2172720 -1.1069230 -0.2577040
C 1.2555580 0.1769790 0.0927310
H -2.1244609 0.8198050 0.2518970
H -1.2132080 -1.2643991 1.3542041
H -0.2524580 -2.1389890 -1.4079360
H 2.1453609 -1.6201090 -0.5067810
H -2.1884611 -1.6386991 -0.0627370
H -1.2066530 0.4233300 -1.2098210
H 0.0840220 -2.8826261 0.1425240
H -0.0571250 1.0294271 1.5426900
H 2.1990750 0.7169960 0.1415530
O 0.2209770 2.2844450 -0.0786120
H -0.5400810 2.8149750 0.1885440
