17
 comment:c
C 0.0526630 0.9380820 0.4164150
C -1.2059790 0.3307260 -0.2028900
C -1.3172730 -1.1586480 0.1387800
C -0.0024590 -1.9555280 -0.0649470
C 1.2103800 -1.1051410 -0.3442840
C 1.2518830 0.2043450 -0.1142530
H -2.1016059 0.8575460 0.1541830
H -1.6361510 -1.2506700 1.1843650
H -0.1185830 -2.6802471 -0.8804540
H 2.0902591 -1.6170350 -0.7313320
H -2.1163480 -1.6072440 -0.4609830
H -1.1439680 0.4856230 -1.2864029
H 0.1977410 -2.5612190 0.8294490
H 0.0059250 0.8153960 1.5142140
H 2.1443059 0.7959460 -0.3051090
O 0.2113820 2.3110540 0.0981210
H -0.5479510 2.7819631 0.4630530
