17
 comment:c
C 0.6176490 1.0463980 0.5155820
C -2.1700821 0.1706860 -0.4242170
C -2.1438799 -1.1553220 -0.4915610
C 0.7458920 -1.9939049 0.5754640
C 1.4002510 -1.1760360 -0.2557010
C 1.2589710 0.2782160 -0.3680790
H -2.6502149 0.6912010 0.4027820
H -2.5957870 -1.7788600 0.2770590
H 0.9458280 -3.0615590 0.5809800
H 2.1187339 -1.6200550 -0.9445160
H -1.6622601 -1.6755170 -1.3147449
H -1.7171810 0.7943750 -1.1899240
H -0.0046400 -1.6370900 1.2761220
H 0.1900240 0.6415670 1.4322300
H 1.6887630 0.7644500 -1.2412180
O 0.4476040 2.3820369 0.3127430
H 0.0502010 2.7727230 1.0981320
