17
 comment:c
C 0.7109790 1.0426750 0.5287930
C -2.3459809 0.1823780 -0.4102970
C -2.2761099 -1.1385580 -0.5314440
C 0.8049360 -1.9900640 0.5690430
C 1.5259680 -1.1691340 -0.2001290
C 1.2934480 0.2673350 -0.3877160
H -3.0538139 0.6556180 0.2675800
H -2.9193120 -1.8011080 0.0441400
H 1.0757500 -3.0359199 0.6839560
H 2.3731439 -1.5829270 -0.7477080
H -1.5658640 -1.6122791 -1.2041470
H -1.7025760 0.8455430 -0.9825430
H -0.0833770 -1.6503350 1.0965101
H 0.4092370 0.6535510 1.5011740
H 1.6236399 0.7291250 -1.3160720
O 0.4488660 2.3587580 0.2954430
H 0.1337430 2.7665710 1.1089780
